REMARK  3 active torsions:
REMARK  status: ('A' for Active; 'I' for Inactive)
REMARK    1  A    between atoms: C4_4  and  C9_14 
REMARK    2  A    between atoms: C6_6  and  N3_11 
REMARK    3  A    between atoms: C12_17  and  O2_21 
ROOT
ATOM      1  C1  <0> d          -0.018   1.503   0.010  0.00  0.00     0.072 C 
ATOM      2  C2  <0> d           0.002  -0.004   0.002  0.00  0.00     0.060 A 
ATOM      3  C3  <0> d          -1.064  -0.768   0.003  0.00  0.00     0.012 A 
ATOM      4  C4  <0> d          -2.537  -0.492  -0.122  0.00  0.00     0.102 C 
ATOM      5  C5  <0> d          -3.075  -1.565  -1.050  0.00  0.00     0.085 C 
ATOM      6  C6  <0> d          -2.317  -2.612  -1.438  0.00  0.00     0.156 C 
ATOM      7  O1  <0> d          -1.033  -2.841  -1.107  0.00  0.00    -0.301 OA
ATOM      8  C7  <0> d          -0.528  -2.199   0.066  0.00  0.00     0.307 A 
ATOM      9  N1  <0> d           0.921  -1.985   0.002  0.00  0.00    -0.155 NA
ATOM     10  N2  <0> d           1.127  -0.765  -0.013  0.00  0.00    -0.157 NA
ATOM     11  C8  <0> d          -4.422  -1.466  -1.525  0.00  0.00     0.100 C 
ATOM     12  N4  <0> d          -5.491  -1.387  -1.903  0.00  0.00    -0.191 NA
ENDROOT
BRANCH   4  13
ATOM     13  C9  <0> d          -2.762   0.875  -0.717  0.00  0.00    -0.043 A 
ATOM     14  C14 <0> d          -3.461   1.831  -0.004  0.00  0.00     0.030 A 
ATOM     15  C13 <0> d          -3.664   3.087  -0.544  0.00  0.00     0.044 A 
ATOM     16  C12 <0> d          -3.175   3.383  -1.809  0.00  0.00     0.085 A 
ATOM     17 Br1  <0> d          -4.613   4.397   0.435  0.00  0.00    -0.048 Br
ATOM     18  C11 <0> d          -2.479   2.420  -2.524  0.00  0.00     0.039 A 
ATOM     19  C10 <0> d          -2.274   1.168  -1.977  0.00  0.00     0.011 A 
BRANCH  16  20
ATOM     20  O2  <0> d          -3.377   4.616  -2.345  0.00  0.00    -0.355 OA
ATOM     21  C15 <0> d          -2.845   4.851  -3.650  0.00  0.00     0.210 C 
ENDBRANCH  16  20
ENDBRANCH   4  13
BRANCH   6  22
ATOM     22  N3  <0> d          -2.917  -3.538  -2.254  0.00  0.00    -0.379 N 
ATOM     23  H6  <0> d          -3.842  -3.421  -2.523  0.00  0.00     0.158 HD
ATOM     24  H7  <0> d          -2.417  -4.310  -2.562  0.00  0.00     0.158 HD
ENDBRANCH   6  22
TORSDOF 3
