REMARK  7 active torsions:
REMARK  status: ('A' for Active; 'I' for Inactive)
REMARK    1  A    between atoms: C3_3  and  C5_6 
REMARK    2  A    between atoms: C6_9  and  S2_15 
REMARK    3  A    between atoms: N3_10  and  C7_11 
REMARK    4  A    between atoms: C7_11  and  C8_12 
REMARK    5  A    between atoms: S2_15  and  C9_16 
REMARK    6  A    between atoms: C9_16  and  C10_17 
REMARK    7  A    between atoms: C10_17  and  C11_19 
ROOT
ATOM      1  C5  <0> d           3.761   1.845  -0.024  0.00  0.00     0.354 C 
ATOM      2  N1  <0> d           3.847   3.122   0.721  0.00  0.00    -0.222 NA
ATOM      3  N2  <0> d           4.274   2.730   2.074  0.00  0.00    -0.218 NA
ATOM      4  C6  <0> d           5.236   1.627   1.815  0.00  0.00     0.376 C 
ATOM      5  N3  <0> d           4.648   0.890   0.671  0.00  0.00     0.151 N 
ATOM      6  H7  <0> d           4.519   3.744   0.296  0.00  0.00     0.143 HD
ATOM      7  H8  <0> d           4.723   3.498   2.548  0.00  0.00     0.143 HD
ENDROOT
BRANCH   4   8
ATOM      8  S2  <0> d           5.370   0.548   3.268  0.00  0.00    -0.110 SA
BRANCH   8   9
ATOM      9  C9  <0> d           3.675  -0.040   3.535  0.00  0.00     0.158 C 
BRANCH   9  10
ATOM     10  C10 <0> d           3.644  -0.959   4.729  0.00  0.00     0.162 C 
ATOM     11  O3  <0> d           4.661  -1.192   5.338  0.00  0.00    -0.295 OA
BRANCH  10  12
ATOM     12  C11 <0> d           2.345  -1.586   5.165  0.00  0.00     0.174 A 
ATOM     13  N4  <0> d           2.600  -2.674   6.117  0.00  0.00    -0.384 N 
ATOM     14  C14 <0> d           2.019  -2.372   7.233  0.00  0.00     0.084 A 
ATOM     15  H16 <0> d           3.113  -3.478   5.940  0.00  0.00     0.160 HD
ATOM     16  C13 <0> d           1.333  -1.083   7.138  0.00  0.00     0.015 A 
ATOM     17  C12 <0> d           1.503  -0.579   5.917  0.00  0.00     0.007 A 
ENDBRANCH  10  12
ENDBRANCH   9  10
ENDBRANCH   8   9
ENDBRANCH   4   8
BRANCH   5  18
ATOM     18  C7  <0> d           5.696   0.392  -0.230  0.00  0.00     0.390 C 
BRANCH  18  19
ATOM     19  C8  <0> d           6.423  -0.751   0.429  0.00  0.00     0.202 C 
ATOM     20  O1  <0> d           6.099  -1.117   1.546  0.00  0.00    -0.647 OA
ATOM     21  O2  <0> d           7.336  -1.310  -0.155  0.00  0.00    -0.647 OA
ENDBRANCH  18  19
ENDBRANCH   5  18
BRANCH   1  22
ATOM     22  C3  <0> d           2.343   1.336  -0.013  0.00  0.00     0.031 A 
ATOM     23  C2  <0> d           1.183   2.038   0.002  0.00  0.00     0.018 A 
ATOM     24  C1  <0> d          -0.016   1.351   0.009  0.00  0.00     0.008 A 
ATOM     25  C4  <0> d           0.002  -0.004   0.002  0.00  0.00     0.050 A 
ATOM     26  S1  <0> d           1.754  -0.349  -0.017  0.00  0.00    -0.103 SA
ENDBRANCH   1  22
TORSDOF 7
