REMARK  8 active torsions:
REMARK  status: ('A' for Active; 'I' for Inactive)
REMARK    1  A    between atoms: C2_2  and  O1_3 
REMARK    2  A    between atoms: O1_3  and  C3_4 
REMARK    3  A    between atoms: C8_9  and  C9_10 
REMARK    4  A    between atoms: C9_10  and  N1_11 
REMARK       I    between atoms: N1_11  and  C10_12 
REMARK    5  A    between atoms: C10_12  and  C11_14 
REMARK       I    between atoms: C11_14  and  N2_16 
REMARK    6  A    between atoms: N2_16  and  C12_17 
REMARK    7  A    between atoms: C14_19  and  C19_25 
REMARK    8  A    between atoms: C17_22  and  O4_23 
REMARK       I    between atoms: C19_25  and  N3_27 
ROOT
ATOM      1  C11 <0> d           5.036   0.884  -2.553  0.00  0.00     0.314 C 
ATOM      2  O3  <0> d           5.601   0.592  -1.519  0.00  0.00    -0.262 OA
ATOM      3  N2  <0> d           5.700   1.549  -3.519  0.00  0.00    -0.316 N 
ATOM      4  H13 <0> d           5.272   1.719  -4.372  0.00  0.00     0.169 HD
ENDROOT
BRANCH   1   5
ATOM      5  C10 <0> d           3.606   0.506  -2.754  0.00  0.00     0.309 C 
ATOM      6  N1  <0> d           2.942  -0.159  -1.788  0.00  0.00    -0.349 N 
ATOM      7  H12 <0> d           3.393  -0.392  -0.962  0.00  0.00     0.163 HD
ATOM      8  O2  <0> d           3.041   0.798  -3.788  0.00  0.00    -0.262 OA
BRANCH   6   9
ATOM      9  C9  <0> d           1.538  -0.529  -1.986  0.00  0.00     0.164 C 
BRANCH   9  10
ATOM     10  C8  <0> d           1.034  -1.258  -0.767  0.00  0.00    -0.007 A 
ATOM     11  C3  <0> d           0.651  -0.545   0.359  0.00  0.00     0.076 A 
ATOM     12  C4  <0> d           0.183  -1.219   1.478  0.00  0.00     0.037 A 
ATOM     13  C5  <0> d           0.104  -2.598   1.469  0.00  0.00     0.003 A 
ATOM     14  C6  <0> d           0.492  -3.307   0.347  0.00  0.00     0.001 A 
ATOM     15  C7  <0> d           0.959  -2.638  -0.769  0.00  0.00     0.011 A 
BRANCH  11  16
ATOM     16  O1  <0> d           0.729   0.811   0.365  0.00  0.00    -0.351 OA
BRANCH  16  17
ATOM     17  C2  <0> d           0.317   1.480   1.559  0.00  0.00     0.171 C 
ATOM     18  C1  <0> d           0.475   2.991   1.378  0.00  0.00     0.034 C 
ENDBRANCH  16  17
ENDBRANCH  11  16
ENDBRANCH   9  10
ENDBRANCH   6   9
ENDBRANCH   1   5
BRANCH   3  19
ATOM     19  C12 <0> d           7.007   1.993  -3.291  0.00  0.00     0.069 A 
ATOM     20  C17 <0> d           7.454   3.179  -3.877  0.00  0.00     0.095 A 
ATOM     21  C16 <0> d           8.749   3.624  -3.647  0.00  0.00     0.040 A 
ATOM     22  C15 <0> d           9.601   2.893  -2.848  0.00  0.00     0.020 A 
ATOM     23  C14 <0> d           9.163   1.702  -2.263  0.00  0.00     0.034 A 
ATOM     24  C13 <0> d           7.859   1.255  -2.488  0.00  0.00     0.049 A 
BRANCH  20  25
ATOM     25  O4  <0> d           6.620   3.900  -4.669  0.00  0.00    -0.354 OA
ATOM     26  C18 <0> d           7.143   5.103  -5.236  0.00  0.00     0.210 C 
ENDBRANCH  20  25
BRANCH  23  27
ATOM     27  C19 <0> d          10.076   0.919  -1.407  0.00  0.00     0.253 C 
ATOM     28  O5  <0> d          10.183  -0.281  -1.571  0.00  0.00    -0.267 OA
ATOM     29  N3  <0> d          10.791   1.534  -0.445  0.00  0.00    -0.357 N 
ATOM     30  C20 <0> d          11.624   0.745   0.466  0.00  0.00     0.152 C 
ATOM     31  C21 <0> d          10.735   2.992  -0.309  0.00  0.00     0.152 C 
ENDBRANCH  23  27
ENDBRANCH   3  19
TORSDOF 8
