REMARK  3 active torsions:
REMARK  status: ('A' for Active; 'I' for Inactive)
REMARK    1  A    between atoms: N1_8  and  C8_9 
REMARK    2  A    between atoms: N2_12  and  C12_14 
REMARK    3  A    between atoms: C15_17  and  N3_19 
ROOT
ATOM      1  C1  <0> d          -0.019   1.526   0.010  0.00  0.00     0.015 C 
ATOM      2  C2  <0> d           0.002  -0.004   0.002  0.00  0.00    -0.040 C 
ATOM      3  C3  <0> d          -1.437  -0.535   0.012  0.00  0.00     0.066 C 
ATOM      4  C4  <0> d          -1.394  -2.024   0.252  0.00  0.00     0.021 A 
ATOM      5  C5  <0> d          -0.316  -2.681   0.738  0.00  0.00    -0.004 A 
ATOM      6  C6  <0> d          -0.649  -4.041   0.820  0.00  0.00     0.028 A 
ATOM      7  C7  <0> d          -1.921  -4.169   0.382  0.00  0.00     0.092 A 
ATOM      8  N1  <0> d          -2.381  -2.931   0.033  0.00  0.00    -0.353 N 
ATOM      9  C15 <0> d           0.986  -2.020   1.111  0.00  0.00     0.219 C 
ATOM     10  C16 <0> d           0.743  -0.511   1.242  0.00  0.00     0.046 C 
ATOM     11  C17 <0> d           0.719  -0.497  -1.257  0.00  0.00     0.015 C 
ENDROOT
BRANCH   8  12
ATOM     12  C8  <0> d          -3.716  -2.632  -0.489  0.00  0.00     0.116 C 
ATOM     13  C11 <0> d          -4.795  -3.081   0.513  0.00  0.00     0.260 C 
ATOM     14  N2  <0> d          -5.642  -4.077  -0.182  0.00  0.00    -0.065 N 
ATOM     15  C10 <0> d          -4.787  -4.668  -1.243  0.00  0.00     0.237 C 
ATOM     16  H29 <0> d          -6.444  -3.624  -0.594  0.00  0.00     0.280 HD
ATOM     17  C9  <0> d          -3.987  -3.452  -1.772  0.00  0.00     0.055 C 
BRANCH  14  18
ATOM     18  C12 <0> d          -6.075  -5.119   0.759  0.00  0.00     0.188 A 
ATOM     19  C14 <0> d          -6.941  -4.686   1.943  0.00  0.00     0.035 A 
ATOM     20  C13 <0> d          -7.563  -5.472   0.787  0.00  0.00     0.035 A 
ENDBRANCH  14  18
ENDBRANCH   8  12
BRANCH   9  21
ATOM     21  N3  <0> d           1.465  -2.558   2.392  0.00  0.00    -0.071 N 
ATOM     22  H23 <0> d           1.608  -3.553   2.306  0.00  0.00     0.275 HD
ATOM     23  H24 <0> d           2.337  -2.113   2.639  0.00  0.00     0.275 HD
ATOM     24  H28 <0> d           0.780  -2.377   3.110  0.00  0.00     0.275 HD
ENDBRANCH   9  21
TORSDOF 3
