REMARK  5 active torsions:
REMARK  status: ('A' for Active; 'I' for Inactive)
REMARK    1  A    between atoms: C4_4  and  C11_14 
REMARK    2  A    between atoms: C5_5  and  N1_7 
REMARK       I    between atoms: N1_7  and  C6_8 
REMARK    3  A    between atoms: C6_8  and  C7_10 
REMARK       I    between atoms: C11_14  and  N2_16 
REMARK    4  A    between atoms: N2_16  and  C13_18 
REMARK    5  A    between atoms: C13_18  and  C14_19 
ROOT
ATOM      1  C1  <0> d          -0.018   1.503   0.010  0.00  0.00     0.056 C 
ATOM      2  C2  <0> d           0.002  -0.004   0.002  0.00  0.00    -0.026 C 
ATOM      3  C3  <0> d          -1.040  -0.813   0.002  0.00  0.00     0.004 C 
ATOM      4  C4  <0> d          -0.832  -2.293   0.006  0.00  0.00     0.135 C 
ATOM      5  C5  <0> d           0.611  -2.647  -0.442  0.00  0.00     0.168 C 
ATOM      6  S1  <0> d           1.440  -1.059  -0.018  0.00  0.00    -0.108 SA
ENDROOT
BRANCH   4   7
ATOM      7  C11 <0> d          -1.815  -2.935  -0.938  0.00  0.00     0.230 C 
ATOM      8  O2  <0> d          -1.415  -3.562  -1.896  0.00  0.00    -0.273 OA
ATOM      9  N2  <0> d          -3.139  -2.813  -0.718  0.00  0.00    -0.350 N 
ATOM     10  C12 <0> d          -3.622  -2.056   0.439  0.00  0.00     0.153 C 
BRANCH   9  11
ATOM     11  C13 <0> d          -4.095  -3.437  -1.636  0.00  0.00     0.183 C 
BRANCH  11  12
ATOM     12  C14 <0> d          -4.402  -4.835  -1.167  0.00  0.00     0.047 A 
ATOM     13  N4  <0> d          -5.328  -5.181  -0.248  0.00  0.00    -0.281 N 
ATOM     14  N3  <0> d          -5.294  -6.574  -0.106  0.00  0.00    -0.187 NA
ATOM     15  H3  <0> d          -5.914  -4.573   0.228  0.00  0.00     0.189 HD
ATOM     16  C16 <0> d          -4.373  -7.045  -0.907  0.00  0.00     0.140 A 
ATOM     17  C15 <0> d          -3.795  -5.969  -1.588  0.00  0.00     0.049 A 
ENDBRANCH  11  12
ENDBRANCH   9  11
ENDBRANCH   4   7
BRANCH   5  18
ATOM     18  N1  <0> d           1.155  -3.766   0.331  0.00  0.00    -0.346 N 
ATOM     19  C6  <0> d           1.806  -4.766  -0.296  0.00  0.00     0.226 C 
ATOM     20  O1  <0> d           1.942  -4.738  -1.501  0.00  0.00    -0.273 OA
ATOM     21  H8  <0> d           1.046  -3.788   1.295  0.00  0.00     0.163 HD
BRANCH  19  22
ATOM     22  C7  <0> d           2.366  -5.916   0.499  0.00  0.00     0.030 C 
ATOM     23  C8  <0> d           3.051  -6.905  -0.446  0.00  0.00     0.024 C 
ATOM     24  C9  <0> d           3.385  -5.389   1.512  0.00  0.00     0.024 C 
ATOM     25  C10 <0> d           1.230  -6.624   1.241  0.00  0.00     0.024 C 
ENDBRANCH  19  22
ENDBRANCH   5  18
TORSDOF 5
