REMARK  5 active torsions:
REMARK  status: ('A' for Active; 'I' for Inactive)
REMARK    1  A    between atoms: C4_6  and  C5_7 
REMARK    2  A    between atoms: C5_7  and  C6_9 
REMARK    3  A    between atoms: C9_12  and  N3_15 
REMARK       I    between atoms: N3_15  and  C12_16 
REMARK    4  A    between atoms: C12_16  and  C13_18 
REMARK    5  A    between atoms: C13_18  and  N4_19 
ROOT
ATOM      1  C6  <0> d          -2.139   2.871   5.799  0.00  0.00     0.018 A 
ATOM      2  C7  <0> d          -1.001   2.075   5.961  0.00  0.00     0.018 A 
ATOM      3  C8  <0> d          -0.385   1.525   4.860  0.00  0.00     0.030 A 
ATOM      4  C9  <0> d          -0.894   1.760   3.586  0.00  0.00     0.034 A 
ATOM      5  C10 <0> d          -2.024   2.556   3.420  0.00  0.00     0.030 A 
ATOM      6  C11 <0> d          -2.648   3.105   4.517  0.00  0.00     0.018 A 
ENDROOT
BRANCH   4   7
ATOM      7  N3  <0> d          -0.268   1.201   2.473  0.00  0.00    -0.326 N 
ATOM      8  C12 <0> d          -1.000   0.828   1.405  0.00  0.00     0.242 C 
ATOM      9  O2  <0> d          -2.211   0.892   1.446  0.00  0.00    -0.271 OA
ATOM     10  H10 <0> d           0.823   1.064   2.467  0.00  0.00     0.169 HD
BRANCH   8  11
ATOM     11  C13 <0> d          -0.315   0.333   0.157  0.00  0.00     0.253 C 
BRANCH  11  12
ATOM     12  N4  <0> d          -1.321  -0.007  -0.851  0.00  0.00    -0.273 N 
ATOM     13  N5  <0> d          -2.390  -0.897  -0.682  0.00  0.00    -0.185 NA
ATOM     14  C16 <0> d          -3.070  -0.936  -1.800  0.00  0.00     0.140 A 
ATOM     15  C15 <0> d          -2.452  -0.080  -2.717  0.00  0.00     0.040 A 
ATOM     16  C14 <0> d          -1.380   0.478  -2.109  0.00  0.00     0.114 A 
ENDBRANCH  11  12
ENDBRANCH   8  11
ENDBRANCH   4   7
BRANCH   1  17
ATOM     17  C5  <0> d          -2.801   3.463   6.976  0.00  0.00     0.228 C 
ATOM     18  O1  <0> d          -2.298   3.350   8.078  0.00  0.00    -0.283 OA
BRANCH  17  19
ATOM     19  C4  <0> d          -4.072   4.191   6.818  0.00  0.00     0.180 A 
ATOM     20  N1  <0> d          -4.843   4.686   7.833  0.00  0.00    -0.342 N 
ATOM     21  C1  <0> d          -4.560   4.591   9.267  0.00  0.00     0.157 C 
ATOM     22  C2  <0> d          -5.916   5.284   7.263  0.00  0.00     0.111 A 
ATOM     23  C3  <0> d          -5.789   5.138   5.920  0.00  0.00     0.136 A 
ATOM     24  N2  <0> d          -4.663   4.473   5.675  0.00  0.00    -0.238 NA
ENDBRANCH  17  19
ENDBRANCH   1  17
TORSDOF 5
