REMARK  3 active torsions:
REMARK  status: ('A' for Active; 'I' for Inactive)
REMARK    1  A    between atoms: C3_3  and  C14_17 
REMARK    2  A    between atoms: C7_7  and  N1_8 
REMARK       I    between atoms: N1_8  and  C8_9 
REMARK    3  A    between atoms: C8_9  and  C9_11 
REMARK       I    between atoms: C14_17  and  N3_19 
ROOT
ATOM      1  C1  <0> d           1.124   1.276   0.041  0.00  0.00     0.052 C 
ATOM      2  C2  <0> d           0.542  -0.113   0.015  0.00  0.00    -0.019 A 
ATOM      3  C3  <0> d           0.448  -0.811  -1.190  0.00  0.00     0.040 A 
ATOM      4  C4  <0> d          -0.092  -2.098  -1.206  0.00  0.00     0.018 A 
ATOM      5  C5  <0> d          -0.531  -2.676  -0.032  0.00  0.00     0.003 A 
ATOM      6  C6  <0> d          -0.439  -1.985   1.161  0.00  0.00     0.030 A 
ATOM      7  C7  <0> d           0.102  -0.705   1.188  0.00  0.00     0.041 A 
ENDROOT
BRANCH   7   8
ATOM      8  N1  <0> d           0.199  -0.012   2.401  0.00  0.00    -0.326 N 
ATOM      9  C8  <0> d           0.430  -0.685   3.545  0.00  0.00     0.226 C 
ATOM     10  O1  <0> d           0.469  -1.898   3.539  0.00  0.00    -0.273 OA
ATOM     11  H7  <0> d           0.100   0.953   2.417  0.00  0.00     0.169 HD
BRANCH   9  12
ATOM     12  C9  <0> d           0.639   0.068   4.833  0.00  0.00     0.081 C 
ATOM     13  C13 <0> d           0.880  -0.925   5.974  0.00  0.00     0.041 C 
ATOM     14  C12 <0> d           1.171  -0.152   7.263  0.00  0.00     0.233 C 
ATOM     15  N2  <0> d           2.364   0.682   7.079  0.00  0.00    -0.075 N 
ATOM     16  C11 <0> d           2.115   1.684   6.035  0.00  0.00     0.233 C 
ATOM     17  H13 <0> d           3.142   0.100   6.806  0.00  0.00     0.277 HD
ATOM     18  H22 <0> d           2.584   1.149   7.946  0.00  0.00     0.277 HD
ATOM     19  C10 <0> d           1.861   0.982   4.699  0.00  0.00     0.041 C 
ENDBRANCH   9  12
ENDBRANCH   7   8
BRANCH   3  20
ATOM     20  C14 <0> d           0.920  -0.188  -2.446  0.00  0.00     0.251 C 
ATOM     21  O2  <0> d           1.495   0.882  -2.415  0.00  0.00    -0.268 OA
ATOM     22  N3  <0> d           0.711  -0.808  -3.624  0.00  0.00    -0.361 N 
ATOM     23  C15 <0> d           1.178  -0.191  -4.868  0.00  0.00     0.149 C 
ATOM     24  H18 <0> d           0.252  -1.662  -3.649  0.00  0.00     0.162 HD
ENDBRANCH   3  20
TORSDOF 3
