REMARK  6 active torsions:
REMARK  status: ('A' for Active; 'I' for Inactive)
REMARK    1  A    between atoms: N1_2  and  C2_3 
REMARK    2  A    between atoms: N1_2  and  S2_10 
REMARK    3  A    between atoms: C2_3  and  C3_4 
REMARK    4  A    between atoms: S2_10  and  C7_13 
REMARK    5  A    between atoms: C10_16  and  C11_18 
REMARK    6  A    between atoms: C11_18  and  N2_19 
ROOT
ATOM      1  S2  <0> d          -0.000  -0.824  -1.437  0.00  0.00     0.267 S 
ATOM      2  O1  <0> d          -0.531  -2.115  -1.167  0.00  0.00    -0.200 OA
ATOM      3  O2  <0> d          -0.572   0.049  -2.401  0.00  0.00    -0.200 OA
ENDROOT
BRANCH   1   4
ATOM      4  N1  <0> d           0.002  -0.004   0.002  0.00  0.00    -0.306 N 
ATOM      5  C1  <0> d          -0.018   1.461   0.010  0.00  0.00     0.163 C 
BRANCH   4   6
ATOM      6  C2  <0> d           0.024  -0.743   1.267  0.00  0.00     0.174 C 
BRANCH   6   7
ATOM      7  C3  <0> d          -1.384  -0.909   1.776  0.00  0.00    -0.031 A 
ATOM      8  C6  <0> d          -2.121  -1.990   1.422  0.00  0.00     0.059 A 
ATOM      9  S1  <0> d          -3.656  -1.689   2.282  0.00  0.00    -0.094 SA
ATOM     10  C5  <0> d          -3.216  -0.138   3.048  0.00  0.00     0.051 A 
ATOM     11  C4  <0> d          -1.946   0.042   2.607  0.00  0.00     0.036 A 
ATOM     12 Br1  <0> d          -4.252   0.967   4.180  0.00  0.00    -0.043 Br
ENDBRANCH   6   7
ENDBRANCH   4   6
ENDBRANCH   1   4
BRANCH   1  13
ATOM     13  C7  <0> d           1.682  -1.059  -1.905  0.00  0.00     0.120 A 
ATOM     14  S3  <0> d           2.732  -0.005  -2.891  0.00  0.00    -0.080 SA
ATOM     15  C10 <0> d           4.210  -1.006  -2.843  0.00  0.00     0.009 A 
ATOM     16  C9  <0> d           3.808  -2.063  -2.096  0.00  0.00     0.018 A 
ATOM     17  C8  <0> d           2.513  -2.091  -1.615  0.00  0.00     0.034 A 
BRANCH  15  18
ATOM     18  C11 <0> d           5.553  -0.745  -3.474  0.00  0.00     0.275 C 
BRANCH  18  19
ATOM     19  N2  <0> d           5.578  -1.315  -4.827  0.00  0.00    -0.075 N 
ATOM     20  H12 <0> d           5.418  -2.310  -4.776  0.00  0.00     0.274 HD
ATOM     21  H13 <0> d           4.855  -0.886  -5.386  0.00  0.00     0.274 HD
ATOM     22  H14 <0> d           6.478  -1.141  -5.250  0.00  0.00     0.274 HD
ENDBRANCH  18  19
ENDBRANCH  15  18
ENDBRANCH   1  13
TORSDOF 6
