REMARK  5 active torsions:
REMARK  status: ('A' for Active; 'I' for Inactive)
REMARK    1  A    between atoms: C3_3  and  N2_15 
REMARK    2  A    between atoms: C5_5  and  N1_7 
REMARK       I    between atoms: N1_7  and  C7_8 
REMARK    3  A    between atoms: C7_8  and  C8_10 
REMARK       I    between atoms: N2_15  and  C12_16 
REMARK    4  A    between atoms: C12_16  and  C13_18 
REMARK    5  A    between atoms: C16_21  and  N3_24 
ROOT
ATOM      1  N2  <0> d           2.384   5.292  -0.024  0.00  0.00    -0.323 N 
ATOM      2  C12 <0> d           2.323   4.074   0.549  0.00  0.00     0.256 C 
ATOM      3  O3  <0> d           3.312   3.599   1.073  0.00  0.00    -0.267 OA
ATOM      4  H9  <0> d           1.512   5.690  -0.564  0.00  0.00     0.169 HD
ENDROOT
BRANCH   1   5
ATOM      5  C3  <0> d           3.555   6.050   0.067  0.00  0.00     0.037 A 
ATOM      6  C2  <0> d           4.794   5.421   0.048  0.00  0.00     0.029 A 
ATOM      7  C1  <0> d           5.952   6.170   0.138  0.00  0.00     0.004 A 
ATOM      8  C6  <0> d           5.882   7.545   0.247  0.00  0.00     0.029 A 
ATOM      9  C5  <0> d           4.646   8.180   0.267  0.00  0.00     0.037 A 
ATOM     10  C4  <0> d           3.482   7.432   0.171  0.00  0.00     0.059 A 
BRANCH   9  11
ATOM     11  N1  <0> d           4.577   9.572   0.377  0.00  0.00    -0.321 N 
ATOM     12  C7  <0> d           3.573  10.144   1.071  0.00  0.00     0.279 C 
ATOM     13  O1  <0> d           2.681   9.455   1.530  0.00  0.00    -0.265 OA
ATOM     14  H5  <0> d           5.342  10.201  -0.102  0.00  0.00     0.169 HD
BRANCH  12  15
ATOM     15  C8  <0> d           3.555  11.596   1.273  0.00  0.00     0.142 A 
ATOM     16  O2  <0> d           4.480  12.470   0.825  0.00  0.00    -0.317 OA
ATOM     17  C11 <0> d           4.136  13.711   1.194  0.00  0.00     0.143 A 
ATOM     18  C10 <0> d           2.983  13.651   1.897  0.00  0.00     0.027 A 
ATOM     19  C9  <0> d           2.603  12.300   1.953  0.00  0.00     0.045 A 
ENDBRANCH  12  15
ENDBRANCH   9  11
ENDBRANCH   1   5
BRANCH   2  20
ATOM     20  C13 <0> d           1.055   3.317   0.542  0.00  0.00     0.032 A 
ATOM     21  C18 <0> d          -0.082   3.861  -0.060  0.00  0.00     0.019 A 
ATOM     22  C17 <0> d          -1.262   3.152  -0.066  0.00  0.00     0.032 A 
ATOM     23  C16 <0> d          -1.322   1.893   0.522  0.00  0.00     0.058 A 
ATOM     24  C15 <0> d          -0.194   1.350   1.126  0.00  0.00     0.032 A 
ATOM     25  C14 <0> d           0.990   2.054   1.136  0.00  0.00     0.019 A 
BRANCH  23  26
ATOM     26  N3  <0> d          -2.521   1.174   0.509  0.00  0.00    -0.244 N 
ATOM     27  N4  <0> d          -2.727  -0.096   1.064  0.00  0.00    -0.179 NA
ATOM     28  C21 <0> d          -3.973  -0.438   0.854  0.00  0.00     0.159 A 
ATOM     29  C20 <0> d          -4.604   0.600   0.158  0.00  0.00     0.047 A 
ATOM     30  C19 <0> d          -3.695   1.584  -0.039  0.00  0.00     0.139 A 
ATOM     31 Br1  <0> d          -6.411   0.628  -0.400  0.00  0.00    -0.048 Br
ENDBRANCH  23  26
ENDBRANCH   2  20
TORSDOF 5
