REMARK  4 active torsions:
REMARK  status: ('A' for Active; 'I' for Inactive)
REMARK    1  A    between atoms: C7_7  and  N1_8 
REMARK    2  A    between atoms: N1_8  and  C8_9 
REMARK    3  A    between atoms: C8_9  and  C9_10 
REMARK    4  A    between atoms: C9_10  and  N2_11 
ROOT
ATOM      1  N1  <0> d           2.354   3.888   0.001  0.00  0.00    -0.387 N 
ATOM      2  H6  <0> d           3.174   3.873   0.734  0.00  0.00     0.159 HD
ENDROOT
BRANCH   1   3
ATOM      3  C7  <0> d           1.155   3.171   0.008  0.00  0.00     0.040 A 
ATOM      4  C2  <0> d           1.174   1.782   0.000  0.00  0.00    -0.034 A 
ATOM      5  C1  <0> d           2.490   1.046  -0.016  0.00  0.00     0.050 C 
ATOM      6  C3  <0> d          -0.013   1.076   0.008  0.00  0.00     0.028 A 
ATOM      7  C4  <0> d          -1.220   1.751   0.017  0.00  0.00     0.012 A 
ATOM      8  C5  <0> d          -1.243   3.134   0.030  0.00  0.00     0.028 A 
ATOM      9 Br1  <0> d          -2.844   0.780   0.020  0.00  0.00    -0.051 Br
ATOM     10  C6  <0> d          -0.059   3.845   0.022  0.00  0.00    -0.034 A 
ATOM     11  C13 <0> d          -0.085   5.352   0.031  0.00  0.00     0.050 C 
ENDBRANCH   1   3
BRANCH   1  12
ATOM     12  C8  <0> d           2.443   4.753  -1.184  0.00  0.00     0.140 C 
BRANCH  12  13
ATOM     13  C9  <0> d           3.767   5.520  -1.156  0.00  0.00     0.147 C 
BRANCH  13  14
ATOM     14  N2  <0> d           3.856   6.382  -2.337  0.00  0.00    -0.331 N 
ATOM     15  C12 <0> d           4.388   6.032  -3.515  0.00  0.00     0.318 A 
ATOM     16  N3  <0> d           4.346   7.000  -4.440  0.00  0.00    -0.341 N 
ATOM     17  O1  <0> d           4.864   4.934  -3.728  0.00  0.00    -0.247 OA
ATOM     18  C11 <0> d           3.716   8.196  -3.858  0.00  0.00     0.144 A 
ATOM     19  H15 <0> d           4.690   7.013  -5.484  0.00  0.00     0.164 HD
ATOM     20  C10 <0> d           3.380   7.771  -2.416  0.00  0.00     0.147 A 
ENDBRANCH  13  14
ENDBRANCH  12  13
ENDBRANCH   1  12
TORSDOF 4
