REMARK  3 active torsions:
REMARK  status: ('A' for Active; 'I' for Inactive)
REMARK    1  A    between atoms: C2_2  and  C7_8 
REMARK       I    between atoms: C7_8  and  N2_10 
REMARK    2  A    between atoms: N2_10  and  C8_11 
REMARK    3  A    between atoms: C13_16  and  N3_17 
ROOT
ATOM      1  C7  <0> d           0.707  -0.487  -1.238  0.00  0.00     0.232 C 
ATOM      2  O1  <0> d           1.700  -1.177  -1.141  0.00  0.00    -0.272 OA
ATOM      3  N2  <0> d           0.227  -0.166  -2.456  0.00  0.00    -0.324 N 
ATOM      4  H13 <0> d          -0.610   0.317  -2.535  0.00  0.00     0.169 HD
ENDROOT
BRANCH   3   5
ATOM      5  C8  <0> d           0.938  -0.529  -3.608  0.00  0.00     0.062 A 
ATOM      6  C13 <0> d           0.268  -0.689  -4.821  0.00  0.00     0.056 A 
ATOM      7  C12 <0> d           0.978  -1.043  -5.959  0.00  0.00     0.033 A 
ATOM      8  C11 <0> d           2.343  -1.248  -5.886  0.00  0.00     0.021 A 
ATOM      9  C10 <0> d           3.006  -1.095  -4.682  0.00  0.00     0.013 A 
ATOM     10  C9  <0> d           2.307  -0.736  -3.544  0.00  0.00     0.051 A 
ATOM     11 Br1  <0> d           4.874  -1.377  -4.592  0.00  0.00    -0.051 Br
BRANCH   6  12
ATOM     12  N3  <0> d          -1.115  -0.487  -4.891  0.00  0.00    -0.388 N 
ATOM     13  C14 <0> d          -2.031  -1.606  -4.660  0.00  0.00     0.149 C 
ATOM     14  C15 <0> d          -1.646   0.844  -5.196  0.00  0.00     0.149 C 
ENDBRANCH   6  12
ENDBRANCH   3   5
BRANCH   1  15
ATOM     15  C2  <0> d           0.011   0.009   0.002  0.00  0.00     0.061 C 
ATOM     16  C1  <0> d          -0.002   1.540   0.003  0.00  0.00     0.027 C 
ATOM     17  C6  <0> d           0.752  -0.496   1.242  0.00  0.00     0.251 C 
ATOM     18  N1  <0> d           0.763  -1.964   1.244  0.00  0.00    -0.074 N 
ATOM     19  C5  <0> d          -0.611  -2.472   1.339  0.00  0.00     0.232 C 
ATOM     20  H10 <0> d           1.298  -2.294   2.034  0.00  0.00     0.277 HD
ATOM     21  H23 <0> d           1.186  -2.298   0.391  0.00  0.00     0.277 HD
ATOM     22  C4  <0> d          -1.404  -2.043   0.104  0.00  0.00     0.029 C 
ATOM     23  C3  <0> d          -1.429  -0.513   0.025  0.00  0.00     0.022 C 
ENDBRANCH   1  15
TORSDOF 3
