REMARK  6 active torsions:
REMARK  status: ('A' for Active; 'I' for Inactive)
REMARK    1  A    between atoms: C2_2  and  C3_3 
REMARK    2  A    between atoms: C3_3  and  C4_4 
REMARK    3  A    between atoms: C3_3  and  N1_17 
REMARK    4  A    between atoms: C4_4  and  C5_5 
REMARK    5  A    between atoms: C4_4  and  S2_11 
REMARK    6  A    between atoms: S2_11  and  C9_12 
ROOT
ATOM      1  C4  <0> d          -1.327  -2.052   0.175  0.00  0.00     0.123 C 
ENDROOT
BRANCH   1   2
ATOM      2  C3  <0> d          -1.297  -0.522   0.136  0.00  0.00     0.202 C 
BRANCH   2   3
ATOM      3  C2  <0> d          -2.235   0.034   1.209  0.00  0.00     0.030 C 
ATOM      4  C1  <0> d          -2.312   1.556   1.080  0.00  0.00     0.007 C 
ENDBRANCH   2   3
BRANCH   2   5
ATOM      5  N1  <0> d           0.071  -0.053   0.390  0.00  0.00    -0.074 N 
ATOM      6  H13 <0> d           0.690  -0.419  -0.317  0.00  0.00     0.274 HD
ATOM      7  H14 <0> d           0.091   0.956   0.365  0.00  0.00     0.274 HD
ATOM      8  H15 <0> d           0.373  -0.372   1.299  0.00  0.00     0.274 HD
ENDBRANCH   2   5
ENDBRANCH   1   2
BRANCH   1   9
ATOM      9  C5  <0> d          -2.719  -2.535  -0.138  0.00  0.00    -0.000 A 
ATOM     10  S1  <0> d          -3.695  -2.274  -1.610  0.00  0.00    -0.104 SA
ATOM     11  C8  <0> d          -5.151  -3.179  -1.111  0.00  0.00     0.069 A 
ATOM     12  C7  <0> d          -4.805  -3.606   0.129  0.00  0.00     0.018 A 
ATOM     13  C6  <0> d          -3.558  -3.276   0.627  0.00  0.00     0.035 A 
ATOM     14 Br1  <0> d          -6.008  -4.638   1.159  0.00  0.00    -0.051 Br
ENDBRANCH   1   9
BRANCH   1  15
ATOM     15  S2  <0> d          -0.167  -2.711  -1.054  0.00  0.00    -0.110 SA
BRANCH  15  16
ATOM     16  C9  <0> d          -0.127  -4.440  -0.718  0.00  0.00     0.041 A 
ATOM     17  S3  <0> d          -0.892  -5.344   0.617  0.00  0.00    -0.095 SA
ATOM     18  C12 <0> d          -0.335  -6.979   0.167  0.00  0.00     0.051 A 
ATOM     19  C11 <0> d           0.392  -6.734  -0.948  0.00  0.00     0.009 A 
ATOM     20  C10 <0> d           0.503  -5.434  -1.407  0.00  0.00     0.026 A 
ENDBRANCH  15  16
ENDBRANCH   1  15
TORSDOF 6
