REMARK  5 active torsions:
REMARK  status: ('A' for Active; 'I' for Inactive)
REMARK    1  A    between atoms: N2_8  and  S1_9 
REMARK    2  A    between atoms: S1_9  and  C7_12 
REMARK    3  A    between atoms: C10_15  and  C13_18 
REMARK    4  A    between atoms: C14_19  and  C15_20 
REMARK    5  A    between atoms: C15_20  and  N3_21 
ROOT
ATOM      1  C7  <0> d           0.087  -5.011   3.896  0.00  0.00     0.081 A 
ATOM      2  C8  <0> d           1.292  -5.210   4.545  0.00  0.00     0.027 A 
ATOM      3  C9  <0> d           1.311  -5.649   5.853  0.00  0.00     0.022 A 
ATOM      4  C10 <0> d           0.111  -5.893   6.521  0.00  0.00     0.017 A 
ATOM      5  C11 <0> d          -1.102  -5.691   5.861  0.00  0.00     0.022 A 
ATOM      6  C12 <0> d          -1.107  -5.246   4.555  0.00  0.00     0.027 A 
ENDROOT
BRANCH   1   7
ATOM      7  S1  <0> d           0.072  -4.449   2.227  0.00  0.00     0.285 S 
ATOM      8  O1  <0> d          -1.171  -4.858   1.672  0.00  0.00    -0.198 OA
ATOM      9  O2  <0> d           1.319  -4.825   1.660  0.00  0.00    -0.198 OA
BRANCH   7  10
ATOM     10  N2  <0> d           0.051  -2.794   2.267  0.00  0.00    -0.142 NA
ATOM     11  C5  <0> d           0.036  -2.108   1.143  0.00  0.00     0.140 A 
ATOM     12  N1  <0> d           0.039  -2.761  -0.066  0.00  0.00    -0.350 N 
ATOM     13  C6  <0> d           0.022  -0.693   1.173  0.00  0.00     0.058 A 
ATOM     14  C4  <0> d           0.024  -2.053  -1.230  0.00  0.00     0.090 A 
ATOM     15  H16 <0> d           0.052  -3.731  -0.090  0.00  0.00     0.166 HD
ATOM     16  C3  <0> d           0.006  -0.704  -1.217  0.00  0.00     0.024 A 
ATOM     17  C2  <0> d           0.002  -0.004   0.002  0.00  0.00    -0.057 A 
ATOM     18  C1  <0> d          -0.018   1.503   0.010  0.00  0.00     0.048 C 
ENDBRANCH   7  10
ENDBRANCH   1   7
BRANCH   4  19
ATOM     19  C13 <0> d           0.123  -6.350   7.878  0.00  0.00    -0.065 C 
ATOM     20  C14 <0> d           0.133  -6.725   8.991  0.00  0.00    -0.074 C 
BRANCH  20  21
ATOM     21  C15 <0> d           0.145  -7.194  10.386  0.00  0.00     0.323 C 
BRANCH  21  22
ATOM     22  N3  <0> d          -1.235  -7.374  10.854  0.00  0.00    -0.069 N 
ATOM     23  H13 <0> d          -1.226  -7.696  11.811  0.00  0.00     0.275 HD
ATOM     24  H14 <0> d          -1.726  -6.494  10.800  0.00  0.00     0.275 HD
ATOM     25  H15 <0> d          -1.701  -8.056  10.274  0.00  0.00     0.275 HD
ENDBRANCH  21  22
ENDBRANCH  20  21
ENDBRANCH   4  19
TORSDOF 5
