REMARK  7 active torsions:
REMARK  status: ('A' for Active; 'I' for Inactive)
REMARK    1  A    between atoms: C2_2  and  C3_3 
REMARK    2  A    between atoms: C2_2  and  N3_9 
REMARK    3  A    between atoms: C3_3  and  N1_4 
REMARK       I    between atoms: N3_9  and  C7_10 
REMARK       I    between atoms: C7_10  and  N4_12 
REMARK    4  A    between atoms: N4_12  and  C8_13 
REMARK    5  A    between atoms: C8_13  and  C9_14 
REMARK    6  A    between atoms: C9_14  and  C12_17 
REMARK    7  A    between atoms: C16_21  and  C18_23 
ROOT
ATOM      1  N3  <0> d           0.711  -0.489   1.189  0.00  0.00    -0.337 N 
ATOM      2  C7  <0> d           2.054  -0.600   1.174  0.00  0.00     0.316 C 
ATOM      3  O1  <0> d           2.677  -0.297   0.175  0.00  0.00    -0.247 OA
ATOM      4  N4  <0> d           2.706  -1.046   2.266  0.00  0.00    -0.342 N 
ATOM      5  H10 <0> d           0.213  -0.731   1.986  0.00  0.00     0.164 HD
ATOM      6  H11 <0> d           2.208  -1.288   3.062  0.00  0.00     0.164 HD
ENDROOT
BRANCH   4   7
ATOM      7  C8  <0> d           4.166  -1.166   2.249  0.00  0.00     0.138 C 
BRANCH   7   8
ATOM      8  C9  <0> d           4.649  -1.692   3.602  0.00  0.00    -0.004 C 
ATOM      9  C10 <0> d           4.230  -0.719   4.706  0.00  0.00     0.021 C 
ATOM     10  C11 <0> d           4.028  -3.064   3.868  0.00  0.00     0.021 C 
BRANCH   8  11
ATOM     11  C12 <0> d           6.151  -1.815   3.585  0.00  0.00    -0.048 A 
ATOM     12  C17 <0> d           6.820  -2.273   4.705  0.00  0.00     0.024 A 
ATOM     13  C16 <0> d           8.197  -2.390   4.688  0.00  0.00     0.048 A 
ATOM     14  C15 <0> d           8.907  -2.041   3.554  0.00  0.00     0.016 A 
ATOM     15  C14 <0> d           8.238  -1.578   2.436  0.00  0.00     0.001 A 
ATOM     16  C13 <0> d           6.861  -1.465   2.451  0.00  0.00     0.008 A 
BRANCH  13  17
ATOM     17  C18 <0> d           8.926  -2.895   5.907  0.00  0.00     0.417 C 
ATOM     18  F1  <0> d          10.301  -2.922   5.650  0.00  0.00    -0.166 F 
ATOM     19  F2  <0> d           8.669  -2.046   6.988  0.00  0.00    -0.166 F 
ATOM     20  F3  <0> d           8.483  -4.187   6.213  0.00  0.00    -0.166 F 
ENDBRANCH  13  17
ENDBRANCH   8  11
ENDBRANCH   7   8
ENDBRANCH   4   7
BRANCH   1  21
ATOM     21  C2  <0> d           0.002  -0.004   0.002  0.00  0.00     0.100 C 
ATOM     22  C1  <0> d          -0.019   1.526   0.010  0.00  0.00     0.034 C 
BRANCH  21  23
ATOM     23  C3  <0> d          -1.433  -0.534   0.013  0.00  0.00     0.153 C 
BRANCH  23  24
ATOM     24  N1  <0> d          -1.416  -1.993  -0.116  0.00  0.00    -0.350 N 
ATOM     25  C6  <0> d          -1.364  -2.886   0.896  0.00  0.00     0.182 A 
ATOM     26  N2  <0> d          -1.368  -4.090   0.393  0.00  0.00    -0.361 N 
ATOM     27  C5  <0> d          -1.414  -4.009  -0.946  0.00  0.00     0.106 A 
ATOM     28  H24 <0> d          -1.338  -4.913   0.905  0.00  0.00     0.166 HD
ATOM     29  C4  <0> d          -1.445  -2.706  -1.284  0.00  0.00     0.108 A 
ENDBRANCH  23  24
ENDBRANCH  21  23
ENDBRANCH   1  21
TORSDOF 7
