REMARK  7 active torsions:
REMARK  status: ('A' for Active; 'I' for Inactive)
REMARK    1  A    between atoms: C2_2  and  C3_3 
REMARK    2  A    between atoms: C3_3  and  C4_4 
REMARK    3  A    between atoms: C4_4  and  N1_6 
REMARK    4  A    between atoms: N1_6  and  C7_8 
REMARK    5  A    between atoms: C7_8  and  C8_9 
REMARK       I    between atoms: C8_9  and  N2_11 
REMARK    6  A    between atoms: N2_11  and  C9_12 
REMARK    7  A    between atoms: C12_15  and  N3_19 
ROOT
ATOM      1  C8  <0> d          -0.095  -4.578   2.233  0.00  0.00     0.248 C 
ATOM      2  O1  <0> d           0.080  -3.888   3.215  0.00  0.00    -0.271 OA
ATOM      3  N2  <0> d           0.172  -5.898   2.281  0.00  0.00    -0.325 N 
ATOM      4  H17 <0> d           0.090  -6.439   1.480  0.00  0.00     0.169 HD
ENDROOT
BRANCH   3   5
ATOM      5  C9  <0> d           0.567  -6.490   3.490  0.00  0.00     0.052 A 
ATOM      6  C14 <0> d           1.437  -7.573   3.481  0.00  0.00     0.040 A 
ATOM      7  C13 <0> d           1.830  -8.152   4.672  0.00  0.00     0.050 A 
ATOM      8 Br1  <0> d           2.088  -8.249   1.840  0.00  0.00    -0.049 Br
ATOM      9  C12 <0> d           1.347  -7.658   5.877  0.00  0.00     0.027 A 
ATOM     10  C11 <0> d           0.473  -6.579   5.884  0.00  0.00     0.031 A 
ATOM     11  C10 <0> d           0.084  -5.997   4.694  0.00  0.00     0.033 A 
BRANCH   9  12
ATOM     12  N3  <0> d           1.741  -8.248   7.082  0.00  0.00    -0.399 N 
ATOM     13  H21 <0> d           1.404  -7.903   7.924  0.00  0.00     0.156 HD
ATOM     14  H22 <0> d           2.351  -9.002   7.077  0.00  0.00     0.156 HD
ENDBRANCH   9  12
ENDBRANCH   3   5
BRANCH   1  15
ATOM     15  C7  <0> d          -0.612  -3.960   0.960  0.00  0.00     0.337 C 
BRANCH  15  16
ATOM     16  N1  <0> d          -0.822  -2.521   1.164  0.00  0.00    -0.063 N 
ATOM     17  C6  <0> d           0.469  -1.868   1.417  0.00  0.00     0.270 C 
ATOM     18  H23 <0> d          -1.431  -2.379   1.956  0.00  0.00     0.280 HD
BRANCH  16  19
ATOM     19  C4  <0> d          -1.437  -1.940  -0.037  0.00  0.00     0.184 C 
ATOM     20  C5  <0> d          -0.588  -2.284  -1.262  0.00  0.00     0.040 C 
BRANCH  19  21
ATOM     21  C3  <0> d          -2.845  -2.512  -0.216  0.00  0.00     0.032 C 
BRANCH  21  22
ATOM     22  C2  <0> d          -3.729  -2.066   0.950  0.00  0.00    -0.002 C 
ATOM     23  C1  <0> d          -5.167  -2.529   0.706  0.00  0.00     0.005 C 
ENDBRANCH  21  22
ENDBRANCH  19  21
ENDBRANCH  16  19
ENDBRANCH  15  16
ENDBRANCH   1  15
TORSDOF 7
