REMARK  4 active torsions:
REMARK  status: ('A' for Active; 'I' for Inactive)
REMARK    1  A    between atoms: C6_8  and  C9_12 
REMARK    2  A    between atoms: C9_12  and  N3_13 
REMARK    3  A    between atoms: C12_16  and  C15_19 
REMARK    4  A    between atoms: C15_19  and  N4_20 
ROOT
ATOM      1  N3  <0> d           1.806  -4.680   1.217  0.00  0.00    -0.066 N 
ATOM      2  C10 <0> d           2.676  -4.296   2.335  0.00  0.00     0.235 C 
ATOM      3  C11 <0> d           2.039  -4.734   3.655  0.00  0.00     0.034 C 
ATOM      4  C12 <0> d           1.855  -6.255   3.648  0.00  0.00     0.014 C 
ATOM      5  C13 <0> d           1.008  -6.650   2.435  0.00  0.00     0.034 C 
ATOM      6  C14 <0> d           1.683  -6.141   1.160  0.00  0.00     0.235 C 
ATOM      7  H21 <0> d           0.893  -4.271   1.348  0.00  0.00     0.280 HD
ENDROOT
BRANCH   1   8
ATOM      8  C9  <0> d           2.384  -4.189  -0.042  0.00  0.00     0.294 C 
BRANCH   8   9
ATOM      9  C6  <0> d           2.397  -2.682  -0.034  0.00  0.00     0.068 A 
ATOM     10  N2  <0> d           1.256  -2.011  -0.020  0.00  0.00    -0.233 NA
ATOM     11  C4  <0> d           1.236  -0.679  -0.013  0.00  0.00     0.137 A 
ATOM     12  N1  <0> d           2.400   0.039  -0.021  0.00  0.00    -0.274 N 
ATOM     13  C5  <0> d           0.002  -0.004   0.002  0.00  0.00     0.051 A 
ATOM     14  C3  <0> d           2.370   1.401  -0.013  0.00  0.00     0.102 A 
ATOM     15  C8  <0> d           3.587  -0.603  -0.035  0.00  0.00     0.255 A 
ATOM     16  C2  <0> d           1.194   2.067   0.002  0.00  0.00     0.018 A 
ATOM     17  C1  <0> d          -0.016   1.359   0.009  0.00  0.00     0.005 A 
ATOM     18  C7  <0> d           3.600  -2.003  -0.042  0.00  0.00     0.104 A 
ATOM     19  O1  <0> d           4.633   0.026  -0.043  0.00  0.00    -0.268 OA
ENDBRANCH   8   9
ENDBRANCH   1   8
BRANCH   4  20
ATOM     20  C15 <0> d           1.146  -6.691   4.931  0.00  0.00     0.234 C 
BRANCH  20  21
ATOM     21  N4  <0> d           1.077  -8.157   4.979  0.00  0.00    -0.079 N 
ATOM     22  H19 <0> d           2.011  -8.539   4.964  0.00  0.00     0.274 HD
ATOM     23  H20 <0> d           0.609  -8.445   5.825  0.00  0.00     0.274 HD
ATOM     24  H22 <0> d           0.563  -8.496   4.179  0.00  0.00     0.274 HD
ENDBRANCH  20  21
ENDBRANCH   4  20
TORSDOF 4
