REMARK  5 active torsions:
REMARK  status: ('A' for Active; 'I' for Inactive)
REMARK    1  A    between atoms: C3_3  and  C10_12 
REMARK    2  A    between atoms: C7_7  and  O1_8 
REMARK    3  A    between atoms: O1_8  and  C8_9 
REMARK       I    between atoms: C10_12  and  N1_14 
REMARK    4  A    between atoms: C12_16  and  C19_24 
REMARK       I    between atoms: C19_24  and  N3_26 
REMARK    5  A    between atoms: N3_26  and  C20_27 
ROOT
ATOM      1  C10 <0> d          -0.162  -0.073  -2.692  0.00  0.00     0.254 C 
ATOM      2  O3  <0> d          -0.090   1.133  -2.824  0.00  0.00    -0.267 OA
ATOM      3  N1  <0> d          -0.388  -0.856  -3.765  0.00  0.00    -0.346 N 
ATOM      4  C11 <0> d          -0.632  -2.317  -3.788  0.00  0.00     0.141 C 
ATOM      5  C12 <0> d          -1.724  -2.513  -4.864  0.00  0.00     0.106 C 
ATOM      6  C13 <0> d          -1.597  -1.286  -5.781  0.00  0.00    -0.007 C 
ATOM      7  C14 <0> d          -0.454  -0.448  -5.189  0.00  0.00     0.136 C 
ATOM      8  C15 <0> d          -2.893  -0.481  -5.770  0.00  0.00     0.039 C 
ATOM      9  C16 <0> d          -2.761   0.703  -6.733  0.00  0.00     0.233 C 
ATOM     10  N2  <0> d          -2.482   0.206  -8.086  0.00  0.00    -0.075 N 
ATOM     11  C17 <0> d          -1.188  -0.487  -8.107  0.00  0.00     0.233 C 
ATOM     12  C18 <0> d          -1.253  -1.721  -7.202  0.00  0.00     0.039 C 
ATOM     13  H20 <0> d          -3.210  -0.434  -8.365  0.00  0.00     0.277 HD
ATOM     14  H38 <0> d          -2.456   0.983  -8.729  0.00  0.00     0.277 HD
ENDROOT
BRANCH   1  15
ATOM     15  C3  <0> d          -0.003  -0.681  -1.353  0.00  0.00     0.040 A 
ATOM     16  C2  <0> d          -0.493  -0.025  -0.223  0.00  0.00    -0.012 A 
ATOM     17  C1  <0> d          -1.185   1.307  -0.363  0.00  0.00     0.052 C 
ATOM     18  C7  <0> d          -0.336  -0.598   1.027  0.00  0.00     0.086 A 
ATOM     19  C6  <0> d           0.298  -1.827   1.153  0.00  0.00     0.038 A 
ATOM     20  C5  <0> d           0.783  -2.479   0.035  0.00  0.00     0.004 A 
ATOM     21  C4  <0> d           0.637  -1.914  -1.216  0.00  0.00     0.018 A 
BRANCH  18  22
ATOM     22  O1  <0> d          -0.807   0.040   2.131  0.00  0.00    -0.279 OA
BRANCH  22  23
ATOM     23  C8  <0> d          -0.103   1.080   2.606  0.00  0.00     0.260 C 
ATOM     24  O2  <0> d           0.962   1.365   2.111  0.00  0.00    -0.265 OA
ATOM     25  C9  <0> d          -0.642   1.893   3.755  0.00  0.00     0.126 C 
ENDBRANCH  22  23
ENDBRANCH  18  22
ENDBRANCH   1  15
BRANCH   5  26
ATOM     26  C19 <0> d          -1.474  -3.780  -5.640  0.00  0.00     0.224 C 
ATOM     27  O4  <0> d          -0.351  -4.229  -5.723  0.00  0.00    -0.273 OA
ATOM     28  N3  <0> d          -2.499  -4.415  -6.243  0.00  0.00    -0.354 N 
ATOM     29  H25 <0> d          -3.398  -4.056  -6.177  0.00  0.00     0.162 HD
BRANCH  28  30
ATOM     30  C20 <0> d          -2.256  -5.646  -6.998  0.00  0.00     0.114 C 
ATOM     31  C24 <0> d          -3.543  -6.481  -7.049  0.00  0.00     0.013 C 
ATOM     32  C23 <0> d          -4.622  -5.657  -7.769  0.00  0.00     0.034 C 
ATOM     33  C25 <0> d          -3.268  -7.743  -7.876  0.00  0.00     0.034 C 
ATOM     34  C22 <0> d          -4.125  -5.307  -9.173  0.00  0.00     0.235 C 
ATOM     35  N4  <0> d          -2.787  -5.864  -9.384  0.00  0.00    -0.069 N 
ATOM     36  C21 <0> d          -1.834  -5.297  -8.427  0.00  0.00     0.260 C 
ATOM     37  C26 <0> d          -2.814  -7.325  -9.280  0.00  0.00     0.235 C 
ATOM     38  H37 <0> d          -2.489  -5.617 -10.316  0.00  0.00     0.280 HD
ENDBRANCH  28  30
ENDBRANCH   5  26
TORSDOF 5
