REMARK  4 active torsions:
REMARK  status: ('A' for Active; 'I' for Inactive)
REMARK    1  A    between atoms: C2_2  and  C10_14 
REMARK       I    between atoms: C10_14  and  N2_16 
REMARK    2  A    between atoms: N2_16  and  C11_17 
REMARK    3  A    between atoms: C12_18  and  C19_26 
REMARK    4  A    between atoms: C19_26  and  O5_28 
ROOT
ATOM      1  C10 <0> d           0.709  -0.489  -1.237  0.00  0.00     0.267 C 
ATOM      2  O3  <0> d           0.070  -0.781  -2.225  0.00  0.00    -0.269 OA
ATOM      3  N2  <0> d           2.053  -0.599  -1.247  0.00  0.00    -0.317 N 
ATOM      4  H8  <0> d           2.564  -0.366  -0.456  0.00  0.00     0.169 HD
ENDROOT
BRANCH   1   5
ATOM      5  C2  <0> d           0.002  -0.004   0.002  0.00  0.00     0.225 C 
ATOM      6  C1  <0> d          -0.019   1.526   0.010  0.00  0.00     0.068 C 
ATOM      7  O2  <0> d           0.694  -0.477   1.160  0.00  0.00    -0.319 OA
ATOM      8  C9  <0> d           0.547  -1.793   1.472  0.00  0.00     0.098 A 
ATOM      9  C4  <0> d          -0.651  -2.442   1.182  0.00  0.00     0.070 A 
ATOM     10  C8  <0> d           1.573  -2.484   2.094  0.00  0.00     0.041 A 
ATOM     11  N1  <0> d          -1.677  -1.739   0.535  0.00  0.00    -0.322 N 
ATOM     12  C5  <0> d          -0.820  -3.772   1.531  0.00  0.00     0.056 A 
ATOM     13  C3  <0> d          -1.413  -0.525   0.008  0.00  0.00     0.267 C 
ATOM     14  H4  <0> d          -2.566  -2.121   0.467  0.00  0.00     0.169 HD
ATOM     15  O1  <0> d          -2.310   0.144  -0.460  0.00  0.00    -0.269 OA
ATOM     16  C6  <0> d           0.207  -4.455   2.158  0.00  0.00     0.036 A 
ATOM     17  C7  <0> d           1.401  -3.813   2.436  0.00  0.00     0.026 A 
ATOM     18 Cl1  <0> d          -0.003  -6.121   2.597  0.00  0.00    -0.084 Cl
ENDBRANCH   1   5
BRANCH   3  19
ATOM     19  C11 <0> d           2.703  -1.046  -2.387  0.00  0.00     0.094 A 
ATOM     20  S1  <0> d           2.022  -1.500  -3.853  0.00  0.00    -0.075 SA
ATOM     21  C14 <0> d           3.488  -1.923  -4.748  0.00  0.00    -0.008 A 
ATOM     22  C13 <0> d           4.496  -1.709  -3.877  0.00  0.00    -0.026 A 
ATOM     23  C15 <0> d           3.606  -2.416  -6.158  0.00  0.00     0.047 C 
ATOM     24  C12 <0> d           4.065  -1.225  -2.576  0.00  0.00     0.080 A 
ATOM     25  C18 <0> d           5.945  -1.965  -4.264  0.00  0.00     0.041 C 
ATOM     26  C17 <0> d           5.970  -2.870  -5.498  0.00  0.00     0.005 C 
ATOM     27  C16 <0> d           5.073  -2.284  -6.593  0.00  0.00     0.005 C 
BRANCH  24  28
ATOM     28  C19 <0> d           5.028  -0.940  -1.510  0.00  0.00     0.296 C 
ATOM     29  O4  <0> d           5.345  -1.814  -0.726  0.00  0.00    -0.259 OA
BRANCH  28  30
ATOM     30  O5  <0> d           5.564   0.293  -1.398  0.00  0.00    -0.322 OA
ATOM     31  C20 <0> d           6.496   0.501  -0.336  0.00  0.00     0.213 C 
ENDBRANCH  28  30
ENDBRANCH  24  28
ENDBRANCH   3  19
TORSDOF 4
