REMARK  6 active torsions:
REMARK  status: ('A' for Active; 'I' for Inactive)
REMARK    1  A    between atoms: O1_2  and  C2_3 
REMARK    2  A    between atoms: C2_3  and  C3_4 
REMARK    3  A    between atoms: C3_4  and  N1_5 
REMARK       I    between atoms: N1_5  and  C4_6 
REMARK       I    between atoms: C4_6  and  N2_8 
REMARK    4  A    between atoms: N2_8  and  N3_9 
REMARK       I    between atoms: N3_9  and  C5_10 
REMARK    5  A    between atoms: C5_10  and  C6_12 
REMARK    6  A    between atoms: C9_15  and  N4_18 
ROOT
ATOM      1  C6  <0> d           4.207  -2.658  -4.284  0.00  0.00     0.033 A 
ATOM      2  C7  <0> d           3.608  -1.412  -4.487  0.00  0.00     0.019 A 
ATOM      3  C8  <0> d           4.227  -0.474  -5.284  0.00  0.00     0.031 A 
ATOM      4  C9  <0> d           5.447  -0.766  -5.885  0.00  0.00     0.043 A 
ATOM      5  C10 <0> d           6.046  -2.005  -5.684  0.00  0.00     0.031 A 
ATOM      6  C11 <0> d           5.436  -2.946  -4.885  0.00  0.00     0.019 A 
ENDROOT
BRANCH   1   7
ATOM      7  C5  <0> d           3.547  -3.666  -3.430  0.00  0.00     0.270 C 
ATOM      8  N3  <0> d           2.362  -3.387  -2.852  0.00  0.00    -0.262 N 
ATOM      9  H10 <0> d           1.944  -2.524  -2.995  0.00  0.00     0.190 HD
ATOM     10  O3  <0> d           4.072  -4.748  -3.250  0.00  0.00    -0.266 OA
BRANCH   8  11
ATOM     11  N2  <0> d           1.736  -4.343  -2.042  0.00  0.00    -0.249 N 
ATOM     12  C4  <0> d           0.551  -4.064  -1.463  0.00  0.00     0.334 C 
ATOM     13  N1  <0> d          -0.031  -2.865  -1.663  0.00  0.00    -0.340 N 
ATOM     14  O2  <0> d           0.007  -4.894  -0.761  0.00  0.00    -0.246 OA
ATOM     15  H8  <0> d           0.403  -2.203  -2.224  0.00  0.00     0.164 HD
ATOM     16  H9  <0> d           2.154  -5.206  -1.898  0.00  0.00     0.192 HD
BRANCH  13  17
ATOM     17  C3  <0> d          -1.319  -2.561  -1.034  0.00  0.00     0.150 C 
BRANCH  17  18
ATOM     18  C2  <0> d          -1.754  -1.146  -1.420  0.00  0.00     0.186 C 
BRANCH  18  19
ATOM     19  O1  <0> d          -1.998  -1.090  -2.826  0.00  0.00    -0.394 OA
ATOM     20  C1  <0> d          -2.412   0.196  -3.293  0.00  0.00     0.201 C 
ENDBRANCH  18  19
ENDBRANCH  17  18
ENDBRANCH  13  17
ENDBRANCH   8  11
ENDBRANCH   1   7
BRANCH   4  21
ATOM     21  N4  <0> d           6.071   0.187  -6.693  0.00  0.00    -0.273 N 
ATOM     22  C19 <0> d           6.935   1.072  -6.141  0.00  0.00     0.265 A 
ATOM     23  C18 <0> d           7.567   2.050  -7.038  0.00  0.00     0.061 A 
ATOM     24  O4  <0> d           7.181   1.056  -4.949  0.00  0.00    -0.267 OA
ATOM     25  C13 <0> d           7.227   2.010  -8.409  0.00  0.00     0.073 A 
ATOM     26  C17 <0> d           8.474   2.999  -6.572  0.00  0.00     0.019 A 
ATOM     27  N5  <0> d           6.342   1.077  -8.841  0.00  0.00    -0.243 NA
ATOM     28  C14 <0> d           7.807   2.930  -9.285  0.00  0.00     0.032 A 
ATOM     29  C12 <0> d           5.802   0.222  -8.027  0.00  0.00     0.218 A 
ATOM     30  C15 <0> d           8.700   3.860  -8.803  0.00  0.00     0.002 A 
ATOM     31  C16 <0> d           9.033   3.896  -7.455  0.00  0.00     0.001 A 
ENDBRANCH   4  21
TORSDOF 6
