REMARK  4 active torsions:
REMARK  status: ('A' for Active; 'I' for Inactive)
REMARK    1  A    between atoms: C10_11  and  O3_25 
REMARK    2  A    between atoms: C15_18  and  O2_24 
REMARK    3  A    between atoms: C18_21  and  C19_22 
REMARK    4  A    between atoms: C19_22  and  O1_23 
ROOT
ATOM      1  C1  <0> d          -0.013   1.086   0.008  0.00  0.00     0.036 C 
ATOM      2  C2  <0> d          -0.718   1.572   1.248  0.00  0.00    -0.026 C 
ATOM      3  C3  <0> d          -0.853   2.855   1.463  0.00  0.00    -0.051 C 
ATOM      4  C4  <0> d          -1.545   3.461   2.677  0.00  0.00     0.312 C 
ATOM      5  N1  <0> d          -1.329   4.905   2.692  0.00  0.00     0.139 N 
ATOM      6  C5  <0> d          -1.615   5.638   1.450  0.00  0.00     0.238 C 
ATOM      7  C6  <0> d          -2.071   7.047   1.694  0.00  0.00     0.078 C 
ATOM      8  C7  <0> d          -0.787   7.565   2.364  0.00  0.00    -0.016 A 
ATOM      9  C8  <0> d          -0.377   8.911   2.649  0.00  0.00     0.002 A 
ATOM     10  C9  <0> d          -0.977  10.160   2.449  0.00  0.00     0.051 A 
ATOM     11  C10 <0> d          -0.266  11.273   2.868  0.00  0.00     0.066 A 
ATOM     12  C11 <0> d           0.988  11.162   3.458  0.00  0.00     0.039 A 
ATOM     13  C12 <0> d           1.598   9.938   3.664  0.00  0.00     0.033 A 
ATOM     14  C13 <0> d           0.903   8.803   3.256  0.00  0.00     0.043 A 
ATOM     15  N2  <0> d           1.215   7.472   3.320  0.00  0.00    -0.354 N 
ATOM     16  H2  <0> d           2.040   7.113   3.684  0.00  0.00     0.166 HD
ATOM     17  C14 <0> d           0.196   6.723   2.796  0.00  0.00     0.083 A 
ATOM     18  C15 <0> d           0.149   5.207   2.699  0.00  0.00     0.304 C 
ATOM     19  C16 <0> d           0.703   4.712   1.351  0.00  0.00     0.088 C 
ATOM     20  C17 <0> d          -0.336   3.944   0.530  0.00  0.00     0.029 C 
ATOM     21  C18 <0> d          -1.597   4.804   0.221  0.00  0.00     0.051 C 
ENDROOT
BRANCH  21  22
ATOM     22  C19 <0> d          -1.402   5.642  -1.045  0.00  0.00     0.171 C 
BRANCH  22  23
ATOM     23  O1  <0> d          -1.511   4.800  -2.194  0.00  0.00    -0.400 OA
ATOM     24  H20 <0> d          -1.398   5.265  -3.034  0.00  0.00     0.209 HD
ENDBRANCH  22  23
ENDBRANCH  21  22
BRANCH  18  25
ATOM     25  O2  <0> d           0.812   4.582   3.805  0.00  0.00    -0.358 OA
ATOM     26  H21 <0> d           1.762   4.754   3.842  0.00  0.00     0.213 HD
ENDBRANCH  18  25
BRANCH  11  27
ATOM     27  O3  <0> d          -0.810  12.508   2.699  0.00  0.00    -0.361 OA
ATOM     28  H22 <0> d          -1.346  12.807   3.446  0.00  0.00     0.217 HD
ENDBRANCH  11  27
TORSDOF 4
