REMARK  6 active torsions:
REMARK  status: ('A' for Active; 'I' for Inactive)
REMARK    1  A    between atoms: C9_12  and  C11_14 
REMARK    2  A    between atoms: C11_14  and  N6_32 
REMARK    3  A    between atoms: C12_15  and  C13_16 
REMARK    4  A    between atoms: C12_15  and  N6_32 
REMARK    5  A    between atoms: N5_20  and  C14_21 
REMARK    6  A    between atoms: C20_27  and  N6_32 
ROOT
ATOM      1  N6  <0> d           1.494  -2.941   5.399  0.00  0.00    -0.056 N 
ATOM      2  H33 <0> d           1.972  -2.036   5.476  0.00  0.00     0.281 HD
ENDROOT
BRANCH   1   3
ATOM      3  C11 <0> d           0.143  -2.725   4.840  0.00  0.00     0.279 C 
BRANCH   3   4
ATOM      4  C9  <0> d           0.263  -1.911   3.578  0.00  0.00     0.036 A 
ATOM      5  C8  <0> d           0.339  -0.504   3.653  0.00  0.00     0.253 A 
ATOM      6  N1  <0> d           0.446   0.257   2.550  0.00  0.00    -0.322 N 
ATOM      7  O1  <0> d           0.305   0.035   4.745  0.00  0.00    -0.268 OA
ATOM      8  C7  <0> d           0.487  -0.315   1.296  0.00  0.00     0.051 A 
ATOM      9  H1  <0> d           0.498   1.251   2.640  0.00  0.00     0.169 HD
ATOM     10  C2  <0> d           0.598   0.471   0.154  0.00  0.00    -0.034 A 
ATOM     11  C6  <0> d           0.415  -1.715   1.166  0.00  0.00    -0.008 A 
ATOM     12  C1  <0> d           0.676   1.972   0.273  0.00  0.00     0.050 C 
ATOM     13  C3  <0> d           0.631  -0.126  -1.088  0.00  0.00     0.009 A 
ATOM     14  C4  <0> d           0.566  -1.507  -1.211  0.00  0.00     0.002 A 
ATOM     15  C5  <0> d           0.456  -2.300  -0.104  0.00  0.00     0.014 A 
ATOM     16  C10 <0> d           0.298  -2.534   2.374  0.00  0.00     0.028 A 
ENDBRANCH   3   4
ENDBRANCH   1   3
BRANCH   1  17
ATOM     17  C12 <0> d           1.394  -3.548   6.743  0.00  0.00     0.317 C 
BRANCH  17  18
ATOM     18  C13 <0> d           0.999  -2.478   7.728  0.00  0.00     0.174 A 
ATOM     19  N5  <0> d           1.823  -1.617   8.353  0.00  0.00    -0.228 N 
ATOM     20  N4  <0> d           1.089  -0.868   9.105  0.00  0.00    -0.044 NA
ATOM     21  N3  <0> d          -0.140  -1.229   8.980  0.00  0.00    -0.023 NA
ATOM     22  N2  <0> d          -0.214  -2.208   8.145  0.00  0.00    -0.112 NA
BRANCH  19  23
ATOM     23  C14 <0> d           3.278  -1.543   8.206  0.00  0.00     0.113 C 
ATOM     24  C19 <0> d           3.659  -0.205   7.568  0.00  0.00     0.027 C 
ATOM     25  C18 <0> d           5.179  -0.127   7.414  0.00  0.00     0.002 C 
ATOM     26  C17 <0> d           5.838  -0.242   8.790  0.00  0.00     0.000 C 
ATOM     27  C16 <0> d           5.457  -1.580   9.427  0.00  0.00     0.002 C 
ATOM     28  C15 <0> d           3.937  -1.657   9.582  0.00  0.00     0.027 C 
ENDBRANCH  19  23
ENDBRANCH  17  18
ENDBRANCH   1  17
BRANCH   1  29
ATOM     29  C20 <0> d           2.275  -3.821   4.504  0.00  0.00     0.189 C 
ATOM     30  C24 <0> d           3.722  -3.920   5.019  0.00  0.00     0.033 C 
ATOM     31  C23 <0> d           3.984  -5.411   5.314  0.00  0.00     0.002 C 
ATOM     32  C22 <0> d           2.964  -6.160   4.421  0.00  0.00     0.002 C 
ATOM     33  C21 <0> d           1.709  -5.256   4.504  0.00  0.00     0.033 C 
ENDBRANCH   1  29
TORSDOF 6
