REMARK  8 active torsions:
REMARK  status: ('A' for Active; 'I' for Inactive)
REMARK    1  A    between atoms: O1_2  and  C2_3 
REMARK    2  A    between atoms: C5_6  and  C8_9 
REMARK    3  A    between atoms: C8_9  and  O6_31 
REMARK    4  A    between atoms: C9_10  and  C19_25 
REMARK    5  A    between atoms: C10_11  and  C12_16 
REMARK    6  A    between atoms: C15_19  and  O4_24 
REMARK    7  A    between atoms: C16_20  and  O3_22 
REMARK    8  A    between atoms: C19_25  and  C20_27 
ROOT
ATOM      1  C8  <0> d          -2.271  -0.560  -0.601  0.00  0.00     0.176 C 
ATOM      2  C9  <0> d          -2.010  -0.786   0.892  0.00  0.00     0.152 C 
ATOM      3  C10 <0> d          -3.097  -1.717   1.442  0.00  0.00     0.136 C 
ATOM      4  N1  <0> d          -4.412  -1.143   1.152  0.00  0.00    -0.333 N 
ATOM      5  C11 <0> d          -4.612  -0.361   0.081  0.00  0.00     0.319 C 
ATOM      6  O2  <0> d          -5.726   0.082  -0.120  0.00  0.00    -0.247 OA
ATOM      7  N2  <0> d          -3.631  -0.049  -0.779  0.00  0.00    -0.306 N 
ATOM      8  H10 <0> d          -5.262  -1.350   1.820  0.00  0.00     0.165 HD
ATOM      9  H11 <0> d          -3.865   0.606  -1.632  0.00  0.00     0.167 HD
ENDROOT
BRANCH   1  10
ATOM     10  C5  <0> d          -1.281   0.441  -1.139  0.00  0.00    -0.002 A 
ATOM     11  C4  <0> d          -1.581   1.790  -1.113  0.00  0.00     0.015 A 
ATOM     12  C3  <0> d          -0.676   2.710  -1.605  0.00  0.00     0.037 A 
ATOM     13  C2  <0> d           0.535   2.279  -2.127  0.00  0.00     0.068 A 
ATOM     14  C7  <0> d           0.834   0.924  -2.151  0.00  0.00     0.037 A 
ATOM     15  C6  <0> d          -0.075   0.009  -1.657  0.00  0.00     0.015 A 
BRANCH  13  16
ATOM     16  O1  <0> d           1.427   3.182  -2.612  0.00  0.00    -0.356 OA
ATOM     17  C1  <0> d           1.052   4.560  -2.554  0.00  0.00     0.210 C 
ENDBRANCH  13  16
ENDBRANCH   1  10
BRANCH   1  18
ATOM     18  O6  <0> d          -2.129  -1.797  -1.304  0.00  0.00    -0.366 OA
ATOM     19  H19 <0> d          -2.772  -2.652  -1.047  0.00  0.00     0.213 HD
ENDBRANCH   1  18
BRANCH   2  20
ATOM     20  C19 <0> d          -2.058   0.533   1.620  0.00  0.00     0.243 C 
ATOM     21  O5  <0> d          -2.764   1.423   1.210  0.00  0.00    -0.288 OA
BRANCH  20  22
ATOM     22  C20 <0> d          -1.225   0.741   2.858  0.00  0.00     0.451 C 
ATOM     23  F1  <0> d          -1.436   2.034   3.350  0.00  0.00    -0.163 F 
ATOM     24  F2  <0> d          -1.594  -0.194   3.831  0.00  0.00    -0.163 F 
ATOM     25  F3  <0> d           0.128   0.578   2.543  0.00  0.00    -0.163 F 
ENDBRANCH  20  22
ENDBRANCH   2  20
BRANCH   3  26
ATOM     26  C12 <0> d          -2.982  -3.068   0.785  0.00  0.00    -0.032 A 
ATOM     27  C17 <0> d          -2.070  -3.991   1.262  0.00  0.00     0.049 A 
ATOM     28  C16 <0> d          -1.963  -5.234   0.659  0.00  0.00     0.101 A 
ATOM     29  C15 <0> d          -2.775  -5.550  -0.426  0.00  0.00     0.099 A 
ATOM     30  C14 <0> d          -3.687  -4.620  -0.899  0.00  0.00     0.040 A 
ATOM     31  C13 <0> d          -3.792  -3.384  -0.290  0.00  0.00     0.012 A 
BRANCH  28  32
ATOM     32  O3  <0> d          -1.067  -6.144   1.127  0.00  0.00    -0.353 OA
ATOM     33  C18 <0> d          -0.267  -5.750   2.244  0.00  0.00     0.210 C 
ENDBRANCH  28  32
BRANCH  29  34
ATOM     34  O4  <0> d          -2.673  -6.769  -1.021  0.00  0.00    -0.358 OA
ATOM     35  H18 <0> d          -1.949  -7.506  -0.644  0.00  0.00     0.217 HD
ENDBRANCH  29  34
ENDBRANCH   3  26
TORSDOF 8
