REMARK  7 active torsions:
REMARK  status: ('A' for Active; 'I' for Inactive)
REMARK    1  A    between atoms: N1_2  and  S1_3 
REMARK    2  A    between atoms: S1_3  and  C2_6 
REMARK    3  A    between atoms: C6_10  and  S2_12 
REMARK    4  A    between atoms: S2_12  and  N2_15 
REMARK    5  A    between atoms: N2_15  and  C8_16 
REMARK    6  A    between atoms: C8_16  and  C9_17 
REMARK    7  A    between atoms: C12_20  and  N4_23 
ROOT
ATOM      1  S2  <0> d          -3.271  -2.095   4.689  0.00  0.00     0.259 S 
ATOM      2  O3  <0> d          -3.039  -3.353   4.071  0.00  0.00    -0.201 OA
ATOM      3  O4  <0> d          -3.427  -1.954   6.095  0.00  0.00    -0.201 OA
ENDROOT
BRANCH   1   4
ATOM      4  C6  <0> d          -1.931  -1.050   4.224  0.00  0.00     0.081 A 
ATOM      5  C5  <0> d          -1.592   0.033   5.014  0.00  0.00     0.025 A 
ATOM      6  C4  <0> d          -0.540   0.852   4.649  0.00  0.00     0.003 A 
ATOM      7  C3  <0> d           0.172   0.589   3.494  0.00  0.00     0.025 A 
ATOM      8  C2  <0> d          -0.166  -0.494   2.705  0.00  0.00     0.081 A 
ATOM      9  C7  <0> d          -1.221  -1.310   3.067  0.00  0.00     0.050 A 
BRANCH   8  10
ATOM     10  S1  <0> d           0.742  -0.829   1.233  0.00  0.00     0.258 S 
ATOM     11  O1  <0> d           0.570  -2.212   0.955  0.00  0.00    -0.201 OA
ATOM     12  O2  <0> d           2.024  -0.240   1.403  0.00  0.00    -0.201 OA
BRANCH  10  13
ATOM     13  N1  <0> d           0.002  -0.004   0.002  0.00  0.00    -0.320 N 
ATOM     14  C1  <0> d          -0.018   1.461   0.010  0.00  0.00     0.159 C 
ATOM     15  H4  <0> d          -0.418  -0.491  -0.724  0.00  0.00     0.171 HD
ENDBRANCH  10  13
ENDBRANCH   8  10
ENDBRANCH   1   4
BRANCH   1  16
ATOM     16  N2  <0> d          -4.641  -1.472   3.997  0.00  0.00    -0.311 N 
ATOM     17  H9  <0> d          -5.352  -1.124   4.557  0.00  0.00     0.172 HD
BRANCH  16  18
ATOM     18  C8  <0> d          -4.778  -1.448   2.539  0.00  0.00     0.172 C 
BRANCH  18  19
ATOM     19  C9  <0> d          -6.217  -1.190   2.174  0.00  0.00    -0.024 A 
ATOM     20  C13 <0> d          -6.673   0.102   2.005  0.00  0.00     0.098 A 
ATOM     21  N3  <0> d          -7.930   0.339   1.679  0.00  0.00    -0.352 N 
ATOM     22  C12 <0> d          -8.801  -0.644   1.514  0.00  0.00     0.102 A 
ATOM     23  H21 <0> d          -8.223   1.256   1.562  0.00  0.00     0.166 HD
ATOM     24  C11 <0> d          -8.412  -1.970   1.674  0.00  0.00     0.049 A 
ATOM     25  C10 <0> d          -7.100  -2.250   2.009  0.00  0.00     0.014 A 
BRANCH  22  26
ATOM     26  N4  <0> d         -10.117  -0.348   1.177  0.00  0.00    -0.376 N 
ATOM     27  C14 <0> d         -11.087  -1.431   0.992  0.00  0.00     0.150 C 
ATOM     28  C15 <0> d         -10.534   1.046   1.007  0.00  0.00     0.150 C 
ENDBRANCH  22  26
ENDBRANCH  18  19
ENDBRANCH  16  18
ENDBRANCH   1  16
TORSDOF 7
