REMARK  6 active torsions:
REMARK  status: ('A' for Active; 'I' for Inactive)
REMARK    1  A    between atoms: C2_2  and  C3_3 
REMARK    2  A    between atoms: C2_2  and  S2_13 
REMARK       I    between atoms: C3_3  and  N1_5 
REMARK    3  A    between atoms: N1_5  and  C4_6 
REMARK    4  A    between atoms: S2_13  and  C8_14 
REMARK    5  A    between atoms: C9_17  and  C13_22 
REMARK    6  A    between atoms: N4_18  and  C10_19 
ROOT
ATOM      1  C8  <0> d           0.037  -0.099   2.661  0.00  0.00     0.268 A 
ATOM      2  N2  <0> d          -1.190  -0.912   2.657  0.00  0.00    -0.279 N 
ATOM      3  N3  <0> d          -2.252  -0.030   2.884  0.00  0.00    -0.158 NA
ATOM      4  C9  <0> d          -1.828   1.198   3.023  0.00  0.00     0.157 A 
ATOM      5  N4  <0> d          -0.435   1.274   2.906  0.00  0.00    -0.328 N 
ATOM      6  H14 <0> d          -1.250  -1.871   2.522  0.00  0.00     0.185 HD
ENDROOT
BRANCH   1   7
ATOM      7  S2  <0> d           0.874  -0.205   1.055  0.00  0.00    -0.108 SA
BRANCH   7   8
ATOM      8  C2  <0> d          -0.452   0.079  -0.150  0.00  0.00     0.139 C 
ATOM      9  C1  <0> d          -0.864   1.552  -0.117  0.00  0.00     0.031 C 
BRANCH   8  10
ATOM     10  C3  <0> d           0.040  -0.275  -1.530  0.00  0.00     0.231 C 
ATOM     11  O1  <0> d           1.231  -0.325  -1.755  0.00  0.00    -0.272 OA
ATOM     12  N1  <0> d          -0.843  -0.535  -2.514  0.00  0.00    -0.355 N 
ATOM     13  H7  <0> d          -1.796  -0.495  -2.334  0.00  0.00     0.162 HD
BRANCH  12  14
ATOM     14  C4  <0> d          -0.365  -0.879  -3.856  0.00  0.00     0.099 C 
ATOM     15  C7  <0> d          -1.444  -1.718  -4.598  0.00  0.00     0.165 C 
ATOM     16  S1  <0> d          -0.908  -1.485  -6.346  0.00  0.00     0.146 S 
ATOM     17  C6  <0> d           0.073   0.059  -6.160  0.00  0.00     0.142 C 
ATOM     18  O2  <0> d          -0.035  -2.546  -6.707  0.00  0.00    -0.228 OA
ATOM     19  O3  <0> d          -2.049  -1.214  -7.148  0.00  0.00    -0.228 OA
ATOM     20  C5  <0> d          -0.119   0.406  -4.664  0.00  0.00     0.041 C 
ENDBRANCH  12  14
ENDBRANCH   8  10
ENDBRANCH   7   8
ENDBRANCH   1   7
BRANCH   5  21
ATOM     21  C10 <0> d           0.392   2.479   3.007  0.00  0.00     0.089 A 
ATOM     22  C12 <0> d           1.355   2.579   4.192  0.00  0.00     0.027 A 
ATOM     23  C11 <0> d           1.897   2.324   2.784  0.00  0.00     0.027 A 
ENDBRANCH   5  21
BRANCH   4  24
ATOM     24  C13 <0> d          -2.662   2.301   3.261  0.00  0.00     0.019 A 
ATOM     25  C20 <0> d          -2.239   3.736   3.486  0.00  0.00     0.163 A 
ATOM     26  N5  <0> d          -3.476   4.498   3.682  0.00  0.00    -0.385 N 
ATOM     27  C19 <0> d          -4.508   3.679   3.605  0.00  0.00     0.039 A 
ATOM     28  H26 <0> d          -3.528   5.452   3.847  0.00  0.00     0.160 HD
ATOM     29  C14 <0> d          -4.055   2.303   3.345  0.00  0.00     0.002 A 
ATOM     30  C18 <0> d          -5.902   3.913   3.729  0.00  0.00     0.030 A 
ATOM     31  C15 <0> d          -5.018   1.279   3.229  0.00  0.00     0.014 A 
ATOM     32  C16 <0> d          -6.337   1.576   3.359  0.00  0.00     0.001 A 
ATOM     33  C17 <0> d          -6.771   2.880   3.607  0.00  0.00     0.002 A 
ENDBRANCH   4  24
TORSDOF 6
