REMARK  6 active torsions:
REMARK  status: ('A' for Active; 'I' for Inactive)
REMARK    1  A    between atoms: C2_2  and  C3_3 
REMARK    2  A    between atoms: C3_3  and  N1_4 
REMARK    3  A    between atoms: C5_6  and  S1_10 
REMARK    4  A    between atoms: C6_7  and  N3_9 
REMARK    5  A    between atoms: S1_10  and  N4_13 
REMARK    6  A    between atoms: N4_13  and  C8_15 
ROOT
ATOM      1  S1  <0> d          -2.612  -5.169   0.789  0.00  0.00     0.270 S 
ATOM      2  O1  <0> d          -1.483  -6.018   0.943  0.00  0.00    -0.200 OA
ATOM      3  O2  <0> d          -3.390  -4.729   1.893  0.00  0.00    -0.200 OA
ENDROOT
BRANCH   1   4
ATOM      4  C5  <0> d          -2.043  -3.720  -0.036  0.00  0.00     0.144 A 
ATOM      5  C4  <0> d          -2.309  -2.443   0.323  0.00  0.00     0.141 A 
ATOM      6  N1  <0> d          -1.694  -1.628  -0.560  0.00  0.00    -0.277 N 
ATOM      7  N2  <0> d          -1.030  -2.428  -1.499  0.00  0.00    -0.153 NA
ATOM      8  C6  <0> d          -1.234  -3.685  -1.184  0.00  0.00     0.166 A 
BRANCH   6   9
ATOM      9  C3  <0> d          -1.721  -0.164  -0.543  0.00  0.00     0.150 C 
BRANCH   9  10
ATOM     10  C2  <0> d          -0.288   0.373  -0.538  0.00  0.00     0.017 C 
ATOM     11  C1  <0> d          -0.316   1.903  -0.520  0.00  0.00     0.007 C 
ENDBRANCH   9  10
ENDBRANCH   6   9
BRANCH   8  12
ATOM     12  N3  <0> d          -0.737  -4.797  -1.873  0.00  0.00    -0.381 N 
ATOM     13  H9  <0> d          -0.856  -5.688  -1.508  0.00  0.00     0.157 HD
ATOM     14  H10 <0> d          -0.274  -4.678  -2.717  0.00  0.00     0.157 HD
ENDBRANCH   8  12
ENDBRANCH   1   4
BRANCH   1  15
ATOM     15  N4  <0> d          -3.650  -5.944  -0.242  0.00  0.00    -0.273 N 
ATOM     16  C7  <0> d          -3.164  -7.042  -1.083  0.00  0.00     0.170 C 
BRANCH  15  17
ATOM     17  C8  <0> d          -4.990  -5.551  -0.311  0.00  0.00     0.083 A 
ATOM     18  C13 <0> d          -5.367  -4.498  -1.138  0.00  0.00     0.143 A 
ATOM     19  C12 <0> d          -6.694  -4.117  -1.207  0.00  0.00     0.044 A 
ATOM     20  F1  <0> d          -4.438  -3.853  -1.877  0.00  0.00    -0.204 F 
ATOM     21  C11 <0> d          -7.644  -4.774  -0.447  0.00  0.00     0.003 A 
ATOM     22  C10 <0> d          -7.271  -5.817   0.381  0.00  0.00     0.002 A 
ATOM     23  C9  <0> d          -5.948  -6.208   0.450  0.00  0.00     0.033 A 
ENDBRANCH  15  17
ENDBRANCH   1  15
TORSDOF 6
