REMARK  6 active torsions:
REMARK  status: ('A' for Active; 'I' for Inactive)
REMARK    1  A    between atoms: N1_5  and  C5_7 
REMARK    2  A    between atoms: C10_12  and  N3_13 
REMARK       I    between atoms: N3_13  and  C11_14 
REMARK       I    between atoms: C11_14  and  N4_16 
REMARK    3  A    between atoms: N4_16  and  C12_17 
REMARK    4  A    between atoms: C12_17  and  C13_18 
REMARK    5  A    between atoms: C13_18  and  C14_19 
REMARK    6  A    between atoms: C13_18  and  N5_26 
ROOT
ATOM      1  N3  <0> d          -0.483  -1.788   3.335  0.00  0.00    -0.307 N 
ATOM      2  C11 <0> d          -0.359  -1.610   4.665  0.00  0.00     0.320 C 
ATOM      3  O1  <0> d          -0.249  -2.574   5.399  0.00  0.00    -0.247 OA
ATOM      4  N4  <0> d          -0.358  -0.366   5.182  0.00  0.00    -0.341 N 
ATOM      5  H10 <0> d          -0.643  -1.025   2.757  0.00  0.00     0.170 HD
ATOM      6  H11 <0> d          -0.446   0.403   4.597  0.00  0.00     0.164 HD
ENDROOT
BRANCH   1   7
ATOM      7  C10 <0> d          -0.382  -3.072   2.787  0.00  0.00     0.065 A 
ATOM      8  C5  <0> d           0.181  -3.252   1.525  0.00  0.00     0.085 A 
ATOM      9  C6  <0> d           0.283  -4.528   0.991  0.00  0.00     0.034 A 
ATOM     10  C7  <0> d          -0.177  -5.616   1.707  0.00  0.00     0.002 A 
ATOM     11  C8  <0> d          -0.741  -5.437   2.957  0.00  0.00     0.002 A 
ATOM     12  C9  <0> d          -0.847  -4.170   3.497  0.00  0.00     0.032 A 
BRANCH   8  13
ATOM     13  N1  <0> d           0.647  -2.146   0.799  0.00  0.00    -0.236 N 
ATOM     14  C4  <0> d           0.364  -1.865  -0.493  0.00  0.00     0.035 A 
ATOM     15  C3  <0> d           1.005  -0.717  -0.815  0.00  0.00     0.055 A 
ATOM     16  C22 <0> d          -0.509  -2.683  -1.410  0.00  0.00     0.070 C 
ATOM     17  C2  <0> d           1.702  -0.281   0.317  0.00  0.00     0.053 A 
ATOM     18  C1  <0> d           2.554   0.959   0.406  0.00  0.00     0.072 C 
ATOM     19  N2  <0> d           1.493  -1.139   1.283  0.00  0.00    -0.172 NA
ENDBRANCH   8  13
ENDBRANCH   1   7
BRANCH   4  20
ATOM     20  C12 <0> d          -0.223  -0.173   6.628  0.00  0.00     0.162 C 
BRANCH  20  21
ATOM     21  C13 <0> d          -0.377   1.312   6.961  0.00  0.00     0.238 C 
BRANCH  21  22
ATOM     22  C14 <0> d          -1.769   1.766   6.604  0.00  0.00    -0.023 A 
ATOM     23  C19 <0> d          -1.992   2.446   5.423  0.00  0.00     0.051 A 
ATOM     24  C18 <0> d          -3.272   2.858   5.092  0.00  0.00     0.117 A 
ATOM     25  C17 <0> d          -4.326   2.596   5.952  0.00  0.00     0.042 A 
ATOM     26  F1  <0> d          -3.492   3.518   3.934  0.00  0.00    -0.206 F 
ATOM     27  C16 <0> d          -4.099   1.920   7.136  0.00  0.00     0.004 A 
ATOM     28  C15 <0> d          -2.822   1.505   7.462  0.00  0.00     0.009 A 
ENDBRANCH  21  22
BRANCH  21  29
ATOM     29  N5  <0> d          -0.148   1.518   8.398  0.00  0.00    -0.069 N 
ATOM     30  C20 <0> d           1.244   1.181   8.725  0.00  0.00     0.270 C 
ATOM     31  C21 <0> d          -0.404   2.924   8.738  0.00  0.00     0.270 C 
ATOM     32  H27 <0> d          -0.771   0.925   8.926  0.00  0.00     0.279 HD
ENDBRANCH  21  29
ENDBRANCH  20  21
ENDBRANCH   4  20
TORSDOF 6
