REMARK  3 active torsions:
REMARK  status: ('A' for Active; 'I' for Inactive)
REMARK    1  A    between atoms: C6_8  and  C10_14 
REMARK       I    between atoms: C10_14  and  N3_16 
REMARK    2  A    between atoms: N3_16  and  C11_17 
REMARK    3  A    between atoms: C16_22  and  N4_23 
ROOT
ATOM      1  C10 <0> d          -1.312   2.113   0.019  0.00  0.00     0.256 C 
ATOM      2  O2  <0> d          -1.334   3.328   0.015  0.00  0.00    -0.267 OA
ATOM      3  N3  <0> d          -2.467   1.419   0.022  0.00  0.00    -0.321 N 
ATOM      4  H7  <0> d          -2.450   0.322  -0.065  0.00  0.00     0.169 HD
ENDROOT
BRANCH   1   5
ATOM      5  C6  <0> d          -0.017   1.396   0.021  0.00  0.00     0.034 A 
ATOM      6  C5  <0> d           0.002  -0.005   0.026  0.00  0.00     0.018 A 
ATOM      7  C4  <0> d           1.186  -0.684   0.022  0.00  0.00     0.020 A 
ATOM      8  C3  <0> d           2.390   0.020   0.013  0.00  0.00     0.061 A 
ATOM      9  C2  <0> d           3.689  -0.672   0.008  0.00  0.00     0.261 A 
ATOM     10  C8  <0> d           2.389   1.433   0.007  0.00  0.00     0.076 A 
ATOM     11  N1  <0> d           4.806   0.092  -0.001  0.00  0.00    -0.296 N 
ATOM     12  O1  <0> d           3.756  -1.887   0.013  0.00  0.00    -0.267 OA
ATOM     13  C1  <0> d           6.124  -0.547  -0.006  0.00  0.00     0.162 C 
ATOM     14  C9  <0> d           4.714   1.455  -0.006  0.00  0.00     0.182 A 
ATOM     15  N2  <0> d           3.571   2.094  -0.002  0.00  0.00    -0.223 NA
ATOM     16  S1  <0> d           6.203   2.397  -0.018  0.00  0.00    -0.011 SA
ATOM     17  C7  <0> d           1.170   2.117   0.011  0.00  0.00     0.050 A 
ENDBRANCH   1   5
BRANCH   3  18
ATOM     18  C11 <0> d          -3.688   2.092   0.137  0.00  0.00     0.064 A 
ATOM     19  C16 <0> d          -4.853   1.518  -0.369  0.00  0.00     0.086 A 
ATOM     20  C15 <0> d          -6.061   2.188  -0.248  0.00  0.00     0.034 A 
ATOM     21  C14 <0> d          -6.105   3.427   0.364  0.00  0.00     0.002 A 
ATOM     22  C13 <0> d          -4.948   3.999   0.861  0.00  0.00     0.002 A 
ATOM     23  C12 <0> d          -3.741   3.336   0.749  0.00  0.00     0.032 A 
BRANCH  19  24
ATOM     24  N4  <0> d          -4.805   0.263  -0.994  0.00  0.00    -0.224 N 
ATOM     25  N6  <0> d          -3.688  -0.582  -1.103  0.00  0.00    -0.160 NA
ATOM     26  C18 <0> d          -4.080  -1.645  -1.756  0.00  0.00     0.257 A 
ATOM     27  N5  <0> d          -5.371  -1.515  -2.061  0.00  0.00    -0.233 NA
ATOM     28  C17 <0> d          -5.823  -0.375  -1.605  0.00  0.00     0.236 A 
ENDBRANCH  19  24
ENDBRANCH   3  18
TORSDOF 3
