REMARK  5 active torsions:
REMARK  status: ('A' for Active; 'I' for Inactive)
REMARK    1  A    between atoms: N1_10  and  C10_14 
REMARK    2  A    between atoms: C10_14  and  C11_15 
REMARK       I    between atoms: C11_15  and  N3_17 
REMARK    3  A    between atoms: N3_17  and  C13_19 
REMARK    4  A    between atoms: C13_19  and  C14_20 
REMARK    5  A    between atoms: C17_23  and  N4_26 
ROOT
ATOM      1  C11 <0> d          -1.624  -1.124  -1.409  0.00  0.00     0.238 C 
ATOM      2  O3  <0> d          -0.988  -0.667  -2.334  0.00  0.00    -0.272 OA
ATOM      3  N3  <0> d          -2.712  -1.882  -1.648  0.00  0.00    -0.351 N 
ATOM      4  C12 <0> d          -3.481  -2.434  -0.530  0.00  0.00     0.153 C 
ENDROOT
BRANCH   1   5
ATOM      5  C10 <0> d          -1.198  -0.844   0.009  0.00  0.00     0.239 C 
BRANCH   5   6
ATOM      6  N1  <0> d           0.002  -0.004   0.002  0.00  0.00    -0.259 N 
ATOM      7  C8  <0> d          -0.016   1.345   0.009  0.00  0.00     0.256 A 
ATOM      8  C5  <0> d           1.435   1.768  -0.002  0.00  0.00     0.116 A 
ATOM      9  O1  <0> d          -0.991   2.066   0.018  0.00  0.00    -0.270 OA
ATOM     10  C4  <0> d           1.741   2.581  -1.255  0.00  0.00     0.041 C 
ATOM     11  N2  <0> d           2.176   0.501  -0.016  0.00  0.00    -0.324 N 
ATOM     12  C6  <0> d           1.765   2.567   1.254  0.00  0.00     0.041 C 
ATOM     13  C3  <0> d           3.220   2.976  -1.262  0.00  0.00     0.007 C 
ATOM     14  C2  <0> d           3.533   3.799  -0.011  0.00  0.00    -0.019 C 
ATOM     15  C1  <0> d           5.008   4.205  -0.023  0.00  0.00     0.010 C 
ATOM     16  C7  <0> d           3.244   2.962   1.237  0.00  0.00     0.007 C 
ATOM     17  C9  <0> d           1.253  -0.480  -0.013  0.00  0.00     0.326 A 
ATOM     18  H13 <0> d           3.140   0.392  -0.026  0.00  0.00     0.165 HD
ATOM     19  O2  <0> d           1.526  -1.665  -0.021  0.00  0.00    -0.247 OA
ENDBRANCH   5   6
ENDBRANCH   1   5
BRANCH   3  20
ATOM     20  C13 <0> d          -3.126  -2.155  -3.027  0.00  0.00     0.164 C 
BRANCH  20  21
ATOM     21  C14 <0> d          -2.454  -3.413  -3.514  0.00  0.00    -0.040 A 
ATOM     22  C19 <0> d          -3.068  -4.638  -3.332  0.00  0.00     0.010 A 
ATOM     23  C18 <0> d          -2.454  -5.793  -3.777  0.00  0.00     0.024 A 
ATOM     24  C17 <0> d          -1.219  -5.722  -4.408  0.00  0.00     0.010 A 
ATOM     25  C16 <0> d          -0.605  -4.489  -4.590  0.00  0.00     0.024 A 
ATOM     26  C15 <0> d          -1.227  -3.338  -4.147  0.00  0.00     0.010 A 
BRANCH  24  27
ATOM     27  N4  <0> d          -0.596  -6.887  -4.860  0.00  0.00    -0.279 NA
ATOM     28  C23 <0> d           0.695  -6.583  -5.494  0.00  0.00     0.122 C 
ATOM     29  C22 <0> d           1.314  -7.878  -6.027  0.00  0.00     0.182 C 
ATOM     30  O4  <0> d           1.445  -8.814  -4.954  0.00  0.00    -0.389 OA
ATOM     31  C21 <0> d           0.207  -9.134  -4.314  0.00  0.00     0.182 C 
ATOM     32  C20 <0> d          -0.423  -7.851  -3.764  0.00  0.00     0.122 C 
ENDBRANCH  24  27
ENDBRANCH  20  21
ENDBRANCH   3  20
TORSDOF 5
