REMARK  3 active torsions:
REMARK  status: ('A' for Active; 'I' for Inactive)
REMARK    1  A    between atoms: C7_7  and  N1_13 
REMARK    2  A    between atoms: N1_13  and  C10_14 
REMARK    3  A    between atoms: C10_14  and  C11_15 
ROOT
ATOM      1  C1  <0> d          -0.354   1.326   0.190  0.00  0.00     0.001 A 
ATOM      2  C2  <0> d           0.781   2.087   0.401  0.00  0.00     0.002 A 
ATOM      3  C3  <0> d           2.003   1.460   0.533  0.00  0.00     0.024 A 
ATOM      4  C4  <0> d           2.099   0.078   0.463  0.00  0.00     0.067 A 
ATOM      5  C5  <0> d           0.973  -0.687   0.269  0.00  0.00    -0.006 A 
ATOM      6  C6  <0> d          -0.257  -0.046   0.123  0.00  0.00     0.011 A 
ATOM      7  C7  <0> d           0.958  -2.186   0.225  0.00  0.00     0.221 C 
ATOM      8  C8  <0> d           2.283  -2.803  -0.188  0.00  0.00     0.053 C 
ATOM      9  C9  <0> d           3.358  -2.421   0.841  0.00  0.00     0.148 C 
ATOM     10  S1  <0> d           3.701  -0.649   0.619  0.00  0.00     0.176 S 
ATOM     11  O1  <0> d           4.238  -0.099   1.814  0.00  0.00    -0.223 OA
ATOM     12  O2  <0> d           4.329  -0.423  -0.635  0.00  0.00    -0.223 OA
ENDROOT
BRANCH   7  13
ATOM     13  N1  <0> d          -0.073  -2.617  -0.729  0.00  0.00    -0.064 N 
ATOM     14  H11 <0> d          -0.959  -2.209  -0.473  0.00  0.00     0.278 HD
ATOM     15  H20 <0> d           0.181  -2.316  -1.657  0.00  0.00     0.278 HD
BRANCH  13  16
ATOM     16  C10 <0> d          -0.182  -4.082  -0.703  0.00  0.00     0.264 C 
BRANCH  16  17
ATOM     17  C11 <0> d          -1.345  -4.522  -1.594  0.00  0.00     0.147 C 
ATOM     18  O3  <0> d          -1.047  -4.225  -2.963  0.00  0.00    -0.384 OA
ATOM     19  C14 <0> d          -0.998  -5.442  -3.728  0.00  0.00     0.168 C 
ATOM     20  C13 <0> d          -1.875  -6.450  -2.942  0.00  0.00     0.029 C 
ATOM     21  C12 <0> d          -1.545  -6.049  -1.479  0.00  0.00     0.036 C 
ENDBRANCH  16  17
ENDBRANCH  13  16
ENDBRANCH   7  13
TORSDOF 3
