REMARK  5 active torsions:
REMARK  status: ('A' for Active; 'I' for Inactive)
REMARK    1  A    between atoms: C2_2  and  C3_3 
REMARK    2  A    between atoms: C3_3  and  O1_4 
REMARK    3  A    between atoms: O1_4  and  C4_5 
REMARK    4  A    between atoms: C15_16  and  C16_18 
REMARK    5  A    between atoms: C21_23  and  O2_24 
ROOT
ATOM      1  C4  <0> d          -1.224   1.752   0.017  0.00  0.00     0.069 A 
ATOM      2  C5  <0> d          -0.013   1.076   0.008  0.00  0.00     0.039 A 
ATOM      3  C6  <0> d           1.173   1.781   0.000  0.00  0.00     0.032 A 
ATOM      4  C7  <0> d           1.165   3.170   0.008  0.00  0.00     0.035 A 
ATOM      5  C8  <0> d          -0.058   3.848   0.034  0.00  0.00    -0.021 A 
ATOM      6  C9  <0> d          -1.240   3.139   0.035  0.00  0.00     0.046 A 
ATOM      7  C10 <0> d          -0.020   5.326   0.068  0.00  0.00     0.050 C 
ATOM      8  C11 <0> d          -1.139   6.153  -0.453  0.00  0.00    -0.021 C 
ATOM      9  C12 <0> d          -0.641   7.290  -0.923  0.00  0.00    -0.029 C 
ATOM     10  C13 <0> d           0.882   7.295  -0.779  0.00  0.00     0.035 C 
ATOM     11  C14 <0> d           1.197   5.793  -0.785  0.00  0.00     0.028 C 
ATOM     12  C15 <0> d           2.427   5.341  -0.018  0.00  0.00     0.123 C 
ATOM     13  N1  <0> d           2.385   3.863  -0.033  0.00  0.00    -0.380 N 
ATOM     14  H18 <0> d           3.216   3.363  -0.072  0.00  0.00     0.160 HD
ENDROOT
BRANCH  12  15
ATOM     15  C16 <0> d           3.676   5.836  -0.699  0.00  0.00    -0.001 A 
ATOM     16  C21 <0> d           4.154   7.111  -0.433  0.00  0.00     0.074 A 
ATOM     17  C20 <0> d           5.305   7.564  -1.061  0.00  0.00     0.038 A 
ATOM     18  C19 <0> d           5.973   6.746  -1.950  0.00  0.00     0.022 A 
ATOM     19  C18 <0> d           5.496   5.474  -2.214  0.00  0.00     0.011 A 
ATOM     20  C17 <0> d           4.351   5.019  -1.585  0.00  0.00     0.031 A 
ATOM     21 Br1  <0> d           6.413   4.355  -3.432  0.00  0.00    -0.051 Br
BRANCH  16  22
ATOM     22  O2  <0> d           3.494   7.915   0.442  0.00  0.00    -0.360 OA
ATOM     23  H22 <0> d           3.791   7.827   1.358  0.00  0.00     0.217 HD
ENDBRANCH  16  22
ENDBRANCH  12  15
BRANCH   1  24
ATOM     24  O1  <0> d          -2.393   1.057   0.014  0.00  0.00    -0.351 OA
BRANCH  24  25
ATOM     25  C3  <0> d          -2.299  -0.369   0.000  0.00  0.00     0.175 C 
BRANCH  25  26
ATOM     26  C2  <0> d          -3.705  -0.973  -0.002  0.00  0.00     0.022 C 
ATOM     27  C1  <0> d          -3.605  -2.499  -0.017  0.00  0.00     0.007 C 
ENDBRANCH  25  26
ENDBRANCH  24  25
ENDBRANCH   1  24
TORSDOF 5
