REMARK  5 active torsions:
REMARK  status: ('A' for Active; 'I' for Inactive)
REMARK    1  A    between atoms: N1_5  and  C5_7 
REMARK    2  A    between atoms: C5_7  and  C6_8 
REMARK    3  A    between atoms: C7_10  and  C9_13 
REMARK       I    between atoms: C9_13  and  N4_15 
REMARK    4  A    between atoms: N4_15  and  C10_16 
REMARK    5  A    between atoms: C13_19  and  C16_22 
REMARK       I    between atoms: C16_22  and  N5_24 
ROOT
ATOM      1  C6  <0> d           1.254  -3.892   2.220  0.00  0.00     0.130 C 
ATOM      2  O1  <0> d           1.795  -4.889   1.500  0.00  0.00    -0.193 OA
ATOM      3  C7  <0> d           1.990  -3.270   3.185  0.00  0.00     0.146 C 
ATOM      4  C8  <0> d           1.414  -2.208   3.953  0.00  0.00     0.108 C 
ATOM      5  N3  <0> d           0.957  -1.365   4.561  0.00  0.00    -0.191 NA
ENDROOT
BRANCH   3   6
ATOM      6  C9  <0> d           3.376  -3.691   3.437  0.00  0.00     0.269 C 
ATOM      7  O2  <0> d           3.866  -4.594   2.785  0.00  0.00    -0.266 OA
ATOM      8  N4  <0> d           4.104  -3.077   4.391  0.00  0.00    -0.322 N 
ATOM      9  H7  <0> d           3.738  -2.313   4.864  0.00  0.00     0.169 HD
BRANCH   8  10
ATOM     10  C10 <0> d           5.382  -3.538   4.697  0.00  0.00     0.035 A 
ATOM     11  C15 <0> d           6.198  -4.044   3.689  0.00  0.00     0.030 A 
ATOM     12  C14 <0> d           7.463  -4.496   3.987  0.00  0.00     0.019 A 
ATOM     13  C13 <0> d           7.925  -4.457   5.306  0.00  0.00     0.032 A 
ATOM     14  C12 <0> d           7.101  -3.954   6.317  0.00  0.00     0.019 A 
ATOM     15  C11 <0> d           5.839  -3.498   6.011  0.00  0.00     0.030 A 
BRANCH  13  16
ATOM     16  C16 <0> d           9.279  -4.946   5.630  0.00  0.00     0.253 C 
ATOM     17  O3  <0> d           9.445  -5.696   6.573  0.00  0.00    -0.267 OA
ATOM     18  N5  <0> d          10.332  -4.561   4.882  0.00  0.00    -0.357 N 
ATOM     19  C17 <0> d          11.687  -4.969   5.259  0.00  0.00     0.152 C 
ATOM     20  C18 <0> d          10.120  -3.734   3.691  0.00  0.00     0.152 C 
ENDBRANCH  13  16
ENDBRANCH   8  10
ENDBRANCH   3   6
BRANCH   1  21
ATOM     21  C5  <0> d          -0.167  -3.460   1.962  0.00  0.00     0.220 C 
BRANCH  21  22
ATOM     22  N1  <0> d          -0.191  -2.491   0.863  0.00  0.00    -0.268 N 
ATOM     23  C4  <0> d          -0.321  -2.781  -0.448  0.00  0.00     0.029 A 
ATOM     24  C3  <0> d          -0.296  -1.614  -1.133  0.00  0.00     0.055 A 
ATOM     25  C19 <0> d          -0.468  -4.157  -1.044  0.00  0.00     0.070 C 
ATOM     26  C2  <0> d          -0.146  -0.575  -0.208  0.00  0.00     0.053 A 
ATOM     27  C1  <0> d          -0.070   0.894  -0.534  0.00  0.00     0.072 C 
ATOM     28  N2  <0> d          -0.077  -1.101   0.989  0.00  0.00    -0.177 NA
ENDBRANCH  21  22
ENDBRANCH   1  21
TORSDOF 5
