REMARK  8 active torsions:
REMARK  status: ('A' for Active; 'I' for Inactive)
REMARK    1  A    between atoms: C4_5  and  C5_7 
REMARK    2  A    between atoms: C5_7  and  C6_8 
REMARK       I    between atoms: C6_8  and  N2_10 
REMARK    3  A    between atoms: N2_10  and  N3_11 
REMARK       I    between atoms: N3_11  and  C7_12 
REMARK    4  A    between atoms: C7_12  and  C8_14 
REMARK    5  A    between atoms: C8_14  and  O3_15 
REMARK    6  A    between atoms: O3_15  and  C9_16 
REMARK    7  A    between atoms: C9_16  and  C10_18 
REMARK    8  A    between atoms: C12_20  and  C19_28 
ROOT
ATOM      1  C9  <0> d          -5.721  -6.907   7.109  0.00  0.00     0.294 C 
ATOM      2  O4  <0> d          -6.748  -6.515   6.591  0.00  0.00    -0.259 OA
ENDROOT
BRANCH   1   3
ATOM      3  O3  <0> d          -4.529  -6.495   6.635  0.00  0.00    -0.308 OA
BRANCH   3   4
ATOM      4  C8  <0> d          -4.547  -5.598   5.522  0.00  0.00     0.283 C 
BRANCH   4   5
ATOM      5  C7  <0> d          -3.133  -5.250   5.135  0.00  0.00     0.260 C 
ATOM      6  N3  <0> d          -2.904  -4.413   4.104  0.00  0.00    -0.266 N 
ATOM      7  H8  <0> d          -3.649  -4.035   3.611  0.00  0.00     0.190 HD
ATOM      8  O2  <0> d          -2.202  -5.723   5.751  0.00  0.00    -0.269 OA
BRANCH   6   9
ATOM      9  N2  <0> d          -1.589  -4.090   3.743  0.00  0.00    -0.267 N 
ATOM     10  C6  <0> d          -1.360  -3.253   2.712  0.00  0.00     0.242 C 
ATOM     11  O1  <0> d          -2.292  -2.780   2.096  0.00  0.00    -0.271 OA
ATOM     12  H7  <0> d          -0.844  -4.468   4.236  0.00  0.00     0.190 HD
BRANCH  10  13
ATOM     13  C5  <0> d           0.054  -2.904   2.324  0.00  0.00     0.171 C 
BRANCH  13  14
ATOM     14  C4  <0> d           0.035  -1.959   1.151  0.00  0.00     0.084 A 
ATOM     15  S1  <0> d           0.047  -2.330  -0.491  0.00  0.00    -0.084 SA
ATOM     16  C3  <0> d           0.010  -0.659  -1.120  0.00  0.00     0.078 A 
ATOM     17  C2  <0> d          -0.009   0.045   0.041  0.00  0.00     0.038 A 
ATOM     18  C1  <0> d          -0.043   1.551   0.048  0.00  0.00     0.071 C 
ATOM     19  N1  <0> d           0.010  -0.650   1.161  0.00  0.00    -0.250 NA
ENDBRANCH  13  14
ENDBRANCH  10  13
ENDBRANCH   6   9
ENDBRANCH   4   5
ENDBRANCH   3   4
ENDBRANCH   1   3
BRANCH   1  20
ATOM     20  C10 <0> d          -5.780  -7.834   8.258  0.00  0.00     0.054 A 
ATOM     21  C14 <0> d          -7.054  -8.199   8.877  0.00  0.00     0.009 A 
ATOM     22  C13 <0> d          -7.044  -9.098   9.974  0.00  0.00     0.068 A 
ATOM     23  C15 <0> d          -8.269  -7.687   8.408  0.00  0.00     0.015 A 
ATOM     24  N4  <0> d          -5.888  -9.584  10.427  0.00  0.00    -0.247 NA
ATOM     25  C18 <0> d          -8.267  -9.457  10.571  0.00  0.00     0.032 A 
ATOM     26  C12 <0> d          -4.731  -9.265   9.888  0.00  0.00     0.068 A 
ATOM     27  C11 <0> d          -4.628  -8.390   8.797  0.00  0.00     0.051 A 
ATOM     28  C17 <0> d          -9.430  -8.932  10.096  0.00  0.00     0.002 A 
ATOM     29  C16 <0> d          -9.433  -8.053   9.015  0.00  0.00     0.001 A 
BRANCH  26  30
ATOM     30  C19 <0> d          -3.492  -9.852  10.454  0.00  0.00    -0.007 A 
ATOM     31  C24 <0> d          -3.563 -10.725  11.538  0.00  0.00     0.014 A 
ATOM     32  C23 <0> d          -2.408 -11.273  12.057  0.00  0.00     0.001 A 
ATOM     33  C22 <0> d          -1.179 -10.948  11.510  0.00  0.00     0.000 A 
ATOM     34  C21 <0> d          -1.102 -10.078  10.438  0.00  0.00     0.001 A 
ATOM     35  C20 <0> d          -2.251  -9.528   9.907  0.00  0.00     0.014 A 
ENDBRANCH  26  30
ENDBRANCH   1  20
TORSDOF 8
