REMARK  5 active torsions:
REMARK  status: ('A' for Active; 'I' for Inactive)
REMARK    1  A    between atoms: N1_2  and  C3_4 
REMARK    2  A    between atoms: C3_4  and  C4_5 
REMARK    3  A    between atoms: C4_5  and  N2_6 
REMARK    4  A    between atoms: N2_6  and  C5_7 
REMARK    5  A    between atoms: N4_14  and  C10_17 
ROOT
ATOM      1  C5  <0> d           4.165  -0.314  -2.509  0.00  0.00     0.106 C 
ATOM      2  C6  <0> d           4.832  -0.823  -3.608  0.00  0.00     0.116 A 
ATOM      3  C7  <0> d           6.282  -0.629  -3.786  0.00  0.00     0.266 A 
ATOM      4  O1  <0> d           6.935  -0.013  -2.965  0.00  0.00    -0.267 OA
ATOM      5  N3  <0> d           6.866  -1.154  -4.883  0.00  0.00    -0.274 N 
ATOM      6  C8  <0> d           6.158  -1.835  -5.795  0.00  0.00     0.337 A 
ATOM      7  O2  <0> d           6.744  -2.282  -6.761  0.00  0.00    -0.246 OA
ATOM      8  N4  <0> d           4.838  -2.049  -5.698  0.00  0.00    -0.229 N 
ATOM      9  C9  <0> d           4.124  -1.588  -4.650  0.00  0.00     0.273 A 
ATOM     10  O3  <0> d           2.928  -1.794  -4.571  0.00  0.00    -0.266 OA
ATOM     11  H13 <0> d           7.819  -1.036  -5.014  0.00  0.00     0.173 HD
ENDROOT
BRANCH   1  12
ATOM     12  N2  <0> d           2.869  -0.624  -2.304  0.00  0.00    -0.396 N 
ATOM     13  H11 <0> d           2.384  -1.142  -2.965  0.00  0.00     0.158 HD
BRANCH  12  14
ATOM     14  C4  <0> d           2.194  -0.177  -1.083  0.00  0.00     0.146 C 
BRANCH  14  15
ATOM     15  C3  <0> d           0.741  -0.658  -1.099  0.00  0.00     0.253 C 
BRANCH  15  16
ATOM     16  N1  <0> d           0.064  -0.211   0.126  0.00  0.00    -0.077 N 
ATOM     17  C1  <0> d          -0.012   1.256   0.135  0.00  0.00     0.269 C 
ATOM     18  C2  <0> d          -1.293  -0.772   0.168  0.00  0.00     0.269 C 
ATOM     19  H19 <0> d           0.584  -0.526   0.932  0.00  0.00     0.279 HD
ENDBRANCH  15  16
ENDBRANCH  14  15
ENDBRANCH  12  14
ENDBRANCH   1  12
BRANCH   8  20
ATOM     20  C10 <0> d           4.187  -2.775  -6.704  0.00  0.00     0.047 A 
ATOM     21  C15 <0> d           4.473  -4.121  -6.888  0.00  0.00     0.030 A 
ATOM     22  C14 <0> d           3.825  -4.834  -7.877  0.00  0.00     0.002 A 
ATOM     23  C13 <0> d           2.900  -4.207  -8.691  0.00  0.00     0.000 A 
ATOM     24  C12 <0> d           2.616  -2.865  -8.514  0.00  0.00     0.002 A 
ATOM     25  C11 <0> d           3.257  -2.147  -7.523  0.00  0.00     0.030 A 
ENDBRANCH   8  20
TORSDOF 5
