REMARK  7 active torsions:
REMARK  status: ('A' for Active; 'I' for Inactive)
REMARK    1  A    between atoms: C2_2  and  N1_3 
REMARK    2  A    between atoms: N1_3  and  C3_4 
REMARK    3  A    between atoms: N1_3  and  C10_13 
REMARK    4  A    between atoms: C3_4  and  C4_5 
REMARK    5  A    between atoms: C10_13  and  C11_14 
REMARK    6  A    between atoms: C11_14  and  C13_16 
REMARK    7  A    between atoms: C13_16  and  N2_17 
ROOT
ATOM      1  N1  <0> d           0.628  -0.555   1.130  0.00  0.00     0.093 N 
ENDROOT
BRANCH   1   2
ATOM      2  C2  <0> d           0.075   0.017  -0.105  0.00  0.00     0.268 C 
ATOM      3  C1  <0> d           0.856  -0.514  -1.308  0.00  0.00     0.037 C 
ENDBRANCH   1   2
BRANCH   1   4
ATOM      4  C3  <0> d           0.435  -2.011   1.168  0.00  0.00     0.314 C 
BRANCH   4   5
ATOM      5  C4  <0> d          -1.037  -2.321   1.258  0.00  0.00     0.009 A 
ATOM      6  C9  <0> d          -1.823  -2.281   0.119  0.00  0.00     0.125 A 
ATOM      7  C8  <0> d          -3.175  -2.571   0.202  0.00  0.00     0.062 A 
ATOM      8  F1  <0> d          -1.272  -1.965  -1.073  0.00  0.00    -0.205 F 
ATOM      9  C7  <0> d          -3.740  -2.888   1.424  0.00  0.00     0.013 A 
ATOM     10  C6  <0> d          -2.953  -2.922   2.562  0.00  0.00     0.020 A 
ATOM     11 Br1  <0> d          -5.587  -3.276   1.539  0.00  0.00    -0.051 Br
ATOM     12  C5  <0> d          -1.603  -2.638   2.478  0.00  0.00     0.013 A 
ENDBRANCH   4   5
ENDBRANCH   1   4
BRANCH   1  13
ATOM     13  C10 <0> d           2.048  -0.208   1.281  0.00  0.00     0.284 C 
BRANCH  13  14
ATOM     14  C11 <0> d           2.172   1.255   1.711  0.00  0.00     0.076 C 
ATOM     15  C12 <0> d           1.520   1.440   3.082  0.00  0.00     0.020 C 
BRANCH  14  16
ATOM     16  C13 <0> d           3.629   1.632   1.792  0.00  0.00     0.073 C 
ATOM     17  N3  <0> d           4.510   1.042   1.003  0.00  0.00    -0.389 N 
ATOM     18  H18 <0> d           4.218   0.366   0.371  0.00  0.00     0.157 HD
ATOM     19  H19 <0> d           5.447   1.285   1.055  0.00  0.00     0.157 HD
BRANCH  16  20
ATOM     20  N2  <0> d           4.026   2.553   2.654  0.00  0.00    -0.389 N 
ATOM     21  H17 <0> d           3.380   2.986   3.233  0.00  0.00     0.157 HD
ATOM     22  H20 <0> d           4.963   2.796   2.706  0.00  0.00     0.157 HD
ENDBRANCH  16  20
ENDBRANCH  14  16
ENDBRANCH  13  14
ENDBRANCH   1  13
TORSDOF 7
