REMARK  4 active torsions:
REMARK  status: ('A' for Active; 'I' for Inactive)
REMARK    1  A    between atoms: N2_11  and  C8_12 
REMARK    2  A    between atoms: C13_17  and  C14_18 
REMARK    3  A    between atoms: C13_17  and  N4_28 
REMARK    4  A    between atoms: C16_21  and  C17_23 
ROOT
ATOM      1  C8  <0> d           5.725   1.357  -3.758  0.00  0.00     0.098 C 
ATOM      2  C9  <0> d           5.799   2.611  -2.882  0.00  0.00     0.053 C 
ATOM      3  C10 <0> d           5.435   2.244  -1.442  0.00  0.00     0.237 C 
ATOM      4  C11 <0> d           3.996   0.449  -2.203  0.00  0.00     0.237 C 
ATOM      5  C12 <0> d           4.318   0.762  -3.666  0.00  0.00     0.053 C 
ATOM      6  N4  <0> d           4.060   1.700  -1.418  0.00  0.00    -0.066 N 
ATOM      7  H21 <0> d           3.423   2.388  -1.836  0.00  0.00     0.280 HD
ENDROOT
BRANCH   6   8
ATOM      8  C13 <0> d           3.643   1.444  -0.025  0.00  0.00     0.294 C 
BRANCH   8   9
ATOM      9  C14 <0> d           2.175   1.102  -0.013  0.00  0.00     0.068 A 
ATOM     10  N3  <0> d           1.277   2.059   0.001  0.00  0.00    -0.243 NA
ATOM     11  C16 <0> d          -0.022   1.784   0.012  0.00  0.00     0.115 A 
ATOM     12  S1  <0> d           0.002  -0.004   0.002  0.00  0.00    -0.079 SA
ATOM     13  C15 <0> d           1.780  -0.198  -0.016  0.00  0.00     0.080 A 
BRANCH  11  14
ATOM     14  C17 <0> d          -1.172   2.702   0.023  0.00  0.00     0.040 A 
ATOM     15  S2  <0> d          -1.186   4.487   0.031  0.00  0.00    -0.099 SA
ATOM     16  C20 <0> d          -2.955   4.726   0.042  0.00  0.00     0.050 A 
ATOM     17  C19 <0> d          -3.415   3.448   0.038  0.00  0.00     0.008 A 
ATOM     18  C18 <0> d          -2.512   2.409   0.023  0.00  0.00     0.022 A 
ENDBRANCH  11  14
ENDBRANCH   8   9
ENDBRANCH   6   8
BRANCH   1  19
ATOM     19  N2  <0> d           6.018   1.713  -5.148  0.00  0.00    -0.293 N 
ATOM     20  C4  <0> d           7.063   1.206  -5.917  0.00  0.00     0.066 A 
ATOM     21  C3  <0> d           8.075   0.292  -5.663  0.00  0.00     0.032 A 
ATOM     22  C5  <0> d           6.971   1.810  -7.172  0.00  0.00     0.063 A 
ATOM     23  C2  <0> d           8.987  -0.015  -6.653  0.00  0.00     0.002 A 
ATOM     24  C1  <0> d           8.896   0.584  -7.898  0.00  0.00     0.002 A 
ATOM     25  C6  <0> d           7.891   1.495  -8.160  0.00  0.00     0.032 A 
ATOM     26  N1  <0> d           5.873   2.666  -7.127  0.00  0.00    -0.306 N 
ATOM     27  H1  <0> d           5.558   3.224  -7.855  0.00  0.00     0.171 HD
ATOM     28  C7  <0> d           5.319   2.582  -5.903  0.00  0.00     0.328 A 
ATOM     29  O1  <0> d           4.338   3.200  -5.533  0.00  0.00    -0.246 OA
ENDBRANCH   1  19
TORSDOF 4
