REMARK  7 active torsions:
REMARK  status: ('A' for Active; 'I' for Inactive)
REMARK    1  A    between atoms: C4_5  and  C5_7 
REMARK    2  A    between atoms: C9_11  and  N2_13 
REMARK       I    between atoms: N2_13  and  C11_14 
REMARK    3  A    between atoms: C11_14  and  C12_16 
REMARK       I    between atoms: C12_16  and  N3_18 
REMARK    4  A    between atoms: N3_18  and  C13_19 
REMARK    5  A    between atoms: C13_19  and  C14_20 
REMARK    6  A    between atoms: C17_23  and  C20_26 
REMARK    7  A    between atoms: C20_26  and  N4_27 
ROOT
ATOM      1  N2  <0> d           1.282  -6.932  -0.056  0.00  0.00    -0.319 N 
ATOM      2  C11 <0> d           2.084  -8.009  -0.168  0.00  0.00     0.313 C 
ATOM      3  O2  <0> d           3.290  -7.871  -0.167  0.00  0.00    -0.262 OA
ATOM      4  H9  <0> d           0.322  -7.047   0.021  0.00  0.00     0.169 HD
ENDROOT
BRANCH   2   5
ATOM      5  C12 <0> d           1.488  -9.373  -0.292  0.00  0.00     0.309 C 
ATOM      6  O3  <0> d           0.283  -9.511  -0.293  0.00  0.00    -0.262 OA
ATOM      7  N3  <0> d           2.290 -10.451  -0.405  0.00  0.00    -0.349 N 
ATOM      8  H10 <0> d           3.254 -10.341  -0.404  0.00  0.00     0.163 HD
BRANCH   7   9
ATOM      9  C13 <0> d           1.706 -11.789  -0.527  0.00  0.00     0.161 C 
BRANCH   9  10
ATOM     10  C14 <0> d           2.809 -12.810  -0.637  0.00  0.00    -0.041 A 
ATOM     11  C19 <0> d           3.327 -13.393   0.504  0.00  0.00     0.009 A 
ATOM     12  C18 <0> d           4.335 -14.333   0.403  0.00  0.00     0.009 A 
ATOM     13  C17 <0> d           4.832 -14.684  -0.839  0.00  0.00    -0.033 A 
ATOM     14  C16 <0> d           4.317 -14.097  -1.979  0.00  0.00     0.009 A 
ATOM     15  C15 <0> d           3.305 -13.160  -1.879  0.00  0.00     0.009 A 
BRANCH  13  16
ATOM     16  C20 <0> d           5.934 -15.706  -0.949  0.00  0.00     0.272 C 
BRANCH  16  17
ATOM     17  N4  <0> d           7.236 -15.029  -0.892  0.00  0.00    -0.075 N 
ATOM     18  C21 <0> d           7.410 -14.411   0.429  0.00  0.00     0.269 C 
ATOM     19  C22 <0> d           8.307 -16.009  -1.119  0.00  0.00     0.269 C 
ATOM     20  H25 <0> d           7.276 -14.316  -1.605  0.00  0.00     0.279 HD
ENDBRANCH  16  17
ENDBRANCH  13  16
ENDBRANCH   9  10
ENDBRANCH   7   9
ENDBRANCH   2   5
BRANCH   1  21
ATOM     21  C9  <0> d           1.834  -5.648  -0.050  0.00  0.00     0.036 A 
ATOM     22  C8  <0> d           1.244  -4.641   0.705  0.00  0.00     0.029 A 
ATOM     23  C7  <0> d           1.787  -3.369   0.715  0.00  0.00     0.003 A 
ATOM     24  C6  <0> d           2.918  -3.091  -0.025  0.00  0.00     0.016 A 
ATOM     25  C5  <0> d           3.518  -4.096  -0.787  0.00  0.00     0.019 A 
ATOM     26  C10 <0> d           2.968  -5.377  -0.801  0.00  0.00     0.045 A 
BRANCH  25  27
ATOM     27  C4  <0> d           4.731  -3.801  -1.580  0.00  0.00     0.179 A 
ATOM     28  N1  <0> d           5.378  -4.655  -2.336  0.00  0.00    -0.234 NA
ATOM     29  C3  <0> d           6.422  -4.026  -2.897  0.00  0.00     0.151 A 
ATOM     30  C2  <0> d           6.411  -2.750  -2.472  0.00  0.00     0.069 A 
ATOM     31  C1  <0> d           7.399  -1.675  -2.846  0.00  0.00     0.078 C 
ATOM     32  O1  <0> d           5.356  -2.613  -1.645  0.00  0.00    -0.295 OA
ENDBRANCH  25  27
ENDBRANCH   1  21
TORSDOF 7
