REMARK  4 active torsions:
REMARK  status: ('A' for Active; 'I' for Inactive)
REMARK    1  A    between atoms: N1_2  and  C3_4 
REMARK       I    between atoms: N2_12  and  C12_14 
REMARK    2  A    between atoms: C12_14  and  C13_16 
REMARK    3  A    between atoms: C13_16  and  N3_17 
REMARK    4  A    between atoms: N3_17  and  C14_18 
ROOT
ATOM      1  C3  <0> d          -1.393  -0.523   0.042  0.00  0.00     0.210 C 
ATOM      2  C4  <0> d          -1.367  -2.051  -0.000  0.00  0.00     0.075 C 
ATOM      3  C5  <0> d          -2.751  -2.596  -0.234  0.00  0.00    -0.029 A 
ATOM      4  C6  <0> d          -3.023  -3.908   0.117  0.00  0.00     0.009 A 
ATOM      5  C7  <0> d          -4.282  -4.437  -0.088  0.00  0.00     0.001 A 
ATOM      6  C8  <0> d          -5.280  -3.659  -0.647  0.00  0.00     0.002 A 
ATOM      7  C9  <0> d          -5.018  -2.351  -0.999  0.00  0.00     0.030 A 
ATOM      8  C10 <0> d          -3.752  -1.815  -0.791  0.00  0.00     0.043 A 
ATOM      9  N2  <0> d          -3.507  -0.482  -1.148  0.00  0.00    -0.314 N 
ATOM     10  C11 <0> d          -2.120  -0.003  -1.205  0.00  0.00     0.165 C 
ATOM     11  C12 <0> d          -4.530   0.349  -1.433  0.00  0.00     0.242 C 
ATOM     12  O1  <0> d          -5.667  -0.071  -1.446  0.00  0.00    -0.271 OA
ENDROOT
BRANCH  11  13
ATOM     13  C13 <0> d          -4.259   1.801  -1.734  0.00  0.00     0.224 C 
BRANCH  13  14
ATOM     14  N3  <0> d          -5.530   2.512  -1.892  0.00  0.00    -0.365 N 
ATOM     15  H18 <0> d          -6.369   2.033  -1.798  0.00  0.00     0.161 HD
BRANCH  14  16
ATOM     16  C14 <0> d          -5.535   3.861  -2.174  0.00  0.00     0.148 A 
ATOM     17  C16 <0> d          -6.806   4.583  -2.334  0.00  0.00     0.034 A 
ATOM     18  C15 <0> d          -6.610   5.943  -2.613  0.00  0.00     0.095 A 
ATOM     19  C17 <0> d          -8.130   4.126  -2.248  0.00  0.00     0.017 A 
ATOM     20  S1  <0> d          -4.844   6.090  -2.639  0.00  0.00     0.286 S 
ATOM     21  C20 <0> d          -7.651   6.805  -2.796  0.00  0.00     0.026 A 
ATOM     22  N4  <0> d          -4.419   4.505  -2.307  0.00  0.00    -0.141 NA
ATOM     23  O2  <0> d          -4.459   6.884  -1.526  0.00  0.00    -0.198 OA
ATOM     24  O3  <0> d          -4.452   6.371  -3.976  0.00  0.00    -0.198 OA
ATOM     25  C19 <0> d          -8.954   6.334  -2.716  0.00  0.00     0.002 A 
ATOM     26  C18 <0> d          -9.179   4.998  -2.437  0.00  0.00     0.001 A 
ENDBRANCH  14  16
ENDBRANCH  13  14
ENDBRANCH  11  13
BRANCH   1  27
ATOM     27  N1  <0> d          -0.017  -0.008   0.060  0.00  0.00    -0.073 N 
ATOM     28  C1  <0> d          -0.044   1.460   0.094  0.00  0.00     0.269 C 
ATOM     29  C2  <0> d           0.679  -0.513   1.251  0.00  0.00     0.269 C 
ATOM     30  H23 <0> d           0.469  -0.316  -0.769  0.00  0.00     0.279 HD
ENDBRANCH   1  27
TORSDOF 4
