REMARK  5 active torsions:
REMARK  status: ('A' for Active; 'I' for Inactive)
REMARK    1  A    between atoms: C6_7  and  C8_11 
REMARK    2  A    between atoms: C8_11  and  S1_12 
REMARK    3  A    between atoms: S1_12  and  C9_13 
REMARK    4  A    between atoms: C9_13  and  C10_14 
REMARK       I    between atoms: C10_14  and  N3_16 
REMARK    5  A    between atoms: N3_16  and  N4_17 
ROOT
ATOM      1  C10 <0> d           8.370  -5.622  -1.713  0.00  0.00     0.245 C 
ATOM      2  O2  <0> d           8.038  -5.412  -2.861  0.00  0.00    -0.271 OA
ATOM      3  N3  <0> d           9.470  -6.356  -1.454  0.00  0.00    -0.256 N 
ATOM      4  H9  <0> d           9.736  -6.524  -0.536  0.00  0.00     0.191 HD
ENDROOT
BRANCH   1   5
ATOM      5  C9  <0> d           7.552  -5.063  -0.578  0.00  0.00     0.178 C 
BRANCH   5   6
ATOM      6  S1  <0> d           6.148  -4.130  -1.246  0.00  0.00    -0.152 SA
BRANCH   6   7
ATOM      7  C8  <0> d           5.277  -3.531   0.228  0.00  0.00     0.155 C 
BRANCH   7   8
ATOM      8  C6  <0> d           4.072  -2.729  -0.191  0.00  0.00     0.140 A 
ATOM      9  N1  <0> d           3.306  -2.207   0.754  0.00  0.00    -0.225 NA
ATOM     10  C5  <0> d           2.243  -1.498   0.457  0.00  0.00     0.112 A 
ATOM     11  C4  <0> d           1.868  -1.261  -0.953  0.00  0.00     0.073 A 
ATOM     12  S2  <0> d           0.997  -0.657   1.404  0.00  0.00    -0.100 SA
ATOM     13  C3  <0> d           0.769  -0.528  -1.190  0.00  0.00    -0.051 A 
ATOM     14  C7  <0> d           2.796  -1.891  -1.945  0.00  0.00     0.281 A 
ATOM     15  C2  <0> d           0.002  -0.004   0.002  0.00  0.00     0.079 A 
ATOM     16  C20 <0> d           0.315  -0.239  -2.598  0.00  0.00     0.046 C 
ATOM     17  C1  <0> d          -0.019   1.526   0.010  0.00  0.00     0.026 C 
ATOM     18  N2  <0> d           3.837  -2.585  -1.473  0.00  0.00    -0.193 NA
ATOM     19  O1  <0> d           2.607  -1.777  -3.144  0.00  0.00    -0.265 OA
ENDBRANCH   7   8
ENDBRANCH   6   7
ENDBRANCH   5   6
ENDBRANCH   1   5
BRANCH   3  20
ATOM     20  N4  <0> d          10.230  -6.876  -2.510  0.00  0.00    -0.167 N 
ATOM     21  C19 <0> d          11.053  -6.147  -3.274  0.00  0.00     0.345 A 
ATOM     22  N5  <0> d          11.668  -6.887  -4.216  0.00  0.00    -0.323 N 
ATOM     23  O4  <0> d          11.227  -4.953  -3.132  0.00  0.00    -0.245 OA
ATOM     24  C12 <0> d          11.180  -8.262  -4.049  0.00  0.00     0.117 A 
ATOM     25  H22 <0> d          12.305  -6.574  -4.877  0.00  0.00     0.165 HD
ATOM     26  C11 <0> d          10.220  -8.172  -2.885  0.00  0.00     0.275 A 
ATOM     27  C17 <0> d          12.333  -9.202  -3.716  0.00  0.00     0.041 C 
ATOM     28  C13 <0> d          10.450  -8.727  -5.305  0.00  0.00     0.041 C 
ATOM     29  O3  <0> d           9.576  -9.073  -2.393  0.00  0.00    -0.268 OA
ATOM     30  C16 <0> d          13.308  -9.256  -4.895  0.00  0.00     0.007 C 
ATOM     31  C15 <0> d          12.572  -9.748  -6.142  0.00  0.00    -0.019 C 
ATOM     32  C14 <0> d          11.433  -8.782  -6.478  0.00  0.00     0.007 C 
ATOM     33  C18 <0> d          13.548  -9.812  -7.319  0.00  0.00     0.010 C 
ENDBRANCH   3  20
TORSDOF 5
