REMARK  3 active torsions:
REMARK  status: ('A' for Active; 'I' for Inactive)
REMARK    1  A    between atoms: C2_2  and  O1_3 
REMARK    2  A    between atoms: O1_3  and  C3_4 
REMARK    3  A    between atoms: C9_10  and  N2_18 
ROOT
ATOM      1  C3  <0> d           0.780  -1.784  -1.319  0.00  0.00     0.079 A 
ATOM      2  C4  <0> d           0.339  -2.626  -0.310  0.00  0.00     0.037 A 
ATOM      3  C5  <0> d           0.443  -3.995  -0.460  0.00  0.00     0.005 A 
ATOM      4  C6  <0> d           0.982  -4.525  -1.615  0.00  0.00     0.037 A 
ATOM      5  C7  <0> d           1.423  -3.685  -2.633  0.00  0.00     0.081 A 
ATOM      6  C8  <0> d           1.321  -2.314  -2.485  0.00  0.00     0.039 A 
ATOM      7  C9  <0> d           1.795  -1.366  -3.558  0.00  0.00     0.228 C 
ATOM      8  C10 <0> d           1.915  -2.112  -4.890  0.00  0.00     0.078 C 
ATOM      9  C11 <0> d           2.670  -3.418  -4.647  0.00  0.00     0.095 C 
ATOM     10  O2  <0> d           1.938  -4.247  -3.758  0.00  0.00    -0.338 OA
ATOM     11  C12 <0> d           4.063  -3.120  -4.062  0.00  0.00     0.068 C 
ATOM     12  C13 <0> d           4.967  -4.154  -4.783  0.00  0.00     0.235 C 
ATOM     13  N1  <0> d           4.393  -4.213  -6.152  0.00  0.00    -0.072 N 
ATOM     14  C14 <0> d           2.925  -4.139  -5.979  0.00  0.00     0.270 C 
ATOM     15  H16 <0> d           4.719  -3.430  -6.700  0.00  0.00     0.277 HD
ATOM     16  H26 <0> d           4.647  -5.081  -6.599  0.00  0.00     0.277 HD
ENDROOT
BRANCH   7  17
ATOM     17  N2  <0> d           0.832  -0.267  -3.699  0.00  0.00    -0.070 N 
ATOM     18  C15 <0> d           1.242   0.603  -4.810  0.00  0.00     0.270 C 
ATOM     19  C16 <0> d          -0.502  -0.817  -3.974  0.00  0.00     0.270 C 
ATOM     20  H25 <0> d           0.805   0.269  -2.845  0.00  0.00     0.279 HD
ENDBRANCH   7  17
BRANCH   1  21
ATOM     21  O1  <0> d           0.678  -0.437  -1.171  0.00  0.00    -0.351 OA
BRANCH  21  22
ATOM     22  C2  <0> d           0.012   0.038   0.001  0.00  0.00     0.171 C 
ATOM     23  C1  <0> d          -0.005   1.567  -0.007  0.00  0.00     0.034 C 
ENDBRANCH  21  22
ENDBRANCH   1  21
TORSDOF 3
