REMARK  3 active torsions:
REMARK  status: ('A' for Active; 'I' for Inactive)
REMARK    1  A    between atoms: C6_6  and  N2_8 
REMARK       I    between atoms: N2_8  and  C7_9 
REMARK    2  A    between atoms: C7_9  and  C8_11 
REMARK    3  A    between atoms: C12_15  and  N3_17 
ROOT
ATOM      1  N2  <0> d           0.051  -2.637   2.417  0.00  0.00    -0.307 N 
ATOM      2  C7  <0> d          -0.032  -3.982   2.467  0.00  0.00     0.257 C 
ATOM      3  O1  <0> d          -0.028  -4.630   1.439  0.00  0.00    -0.267 OA
ATOM      4  H7  <0> d           0.122  -2.125   3.237  0.00  0.00     0.170 HD
ENDROOT
BRANCH   2   5
ATOM      5  C8  <0> d          -0.128  -4.667   3.773  0.00  0.00     0.034 A 
ATOM      6  C13 <0> d          -0.213  -6.060   3.828  0.00  0.00     0.054 A 
ATOM      7  C12 <0> d          -0.297  -6.694   5.050  0.00  0.00     0.121 A 
ATOM      8  C11 <0> d          -0.307  -5.952   6.219  0.00  0.00     0.044 A 
ATOM      9  C10 <0> d          -0.228  -4.570   6.170  0.00  0.00     0.022 A 
ATOM     10 Br1  <0> d          -0.428  -6.830   7.890  0.00  0.00    -0.048 Br
ATOM     11  C9  <0> d          -0.138  -3.925   4.955  0.00  0.00     0.018 A 
BRANCH   7  12
ATOM     12  N3  <0> d          -0.382  -8.171   5.112  0.00  0.00    -0.114 N 
ATOM     13  O2  <0> d          -0.373  -8.819   4.091  0.00  0.00    -0.532 OA
ATOM     14  O3  <0> d          -0.459  -8.728   6.182  0.00  0.00    -0.532 OA
ENDBRANCH   7  12
ENDBRANCH   2   5
BRANCH   1  15
ATOM     15  C6  <0> d           0.034  -1.984   1.186  0.00  0.00     0.130 A 
ATOM     16  C5  <0> d           0.013  -0.595   1.144  0.00  0.00     0.050 A 
ATOM     17  C4  <0> d          -0.004   0.041  -0.085  0.00  0.00     0.006 A 
ATOM     18  C3  <0> d           0.001  -0.738  -1.234  0.00  0.00     0.027 A 
ATOM     19  C2  <0> d           0.022  -2.114  -1.118  0.00  0.00     0.033 A 
ATOM     20  C1  <0> d           0.026  -2.965  -2.361  0.00  0.00     0.070 C 
ATOM     21  N1  <0> d           0.032  -2.693   0.068  0.00  0.00    -0.236 NA
ENDBRANCH   1  15
TORSDOF 3
