REMARK  4 active torsions:
REMARK  status: ('A' for Active; 'I' for Inactive)
REMARK    1  A    between atoms: N3_9  and  C9_14 
REMARK    2  A    between atoms: C9_14  and  C10_15 
REMARK       I    between atoms: C10_15  and  N4_17 
REMARK    3  A    between atoms: N4_17  and  C11_18 
REMARK    4  A    between atoms: C11_18  and  C12_19 
ROOT
ATOM      1  C1  <0> d          -0.018   1.461   0.010  0.00  0.00     0.161 C 
ATOM      2  N1  <0> d           0.002  -0.004   0.002  0.00  0.00    -0.297 N 
ATOM      3  C2  <0> d          -1.192  -0.712   0.004  0.00  0.00     0.159 A 
ATOM      4  C3  <0> d          -1.184  -2.110  -0.004  0.00  0.00     0.084 A 
ATOM      5  C4  <0> d          -2.395  -2.796  -0.001  0.00  0.00     0.035 A 
ATOM      6  C5  <0> d          -3.569  -2.060   0.009  0.00  0.00     0.022 A 
ATOM      7  C6  <0> d          -3.502  -0.679   0.016  0.00  0.00     0.119 A 
ATOM      8  N2  <0> d          -2.343  -0.053   0.013  0.00  0.00    -0.241 NA
ATOM      9  N3  <0> d           0.014  -2.816  -0.013  0.00  0.00    -0.297 N 
ATOM     10  C7  <0> d           1.188  -2.152  -0.016  0.00  0.00     0.317 A 
ATOM     11  O1  <0> d           2.239  -2.760  -0.024  0.00  0.00    -0.262 OA
ATOM     12  C8  <0> d           1.180  -0.660  -0.013  0.00  0.00     0.317 A 
ATOM     13  O2  <0> d           2.225  -0.042  -0.019  0.00  0.00    -0.262 OA
ENDROOT
BRANCH   9  14
ATOM     14  C9  <0> d           0.001  -4.281  -0.020  0.00  0.00     0.235 C 
BRANCH  14  15
ATOM     15  C10 <0> d          -0.011  -4.777  -1.444  0.00  0.00     0.236 C 
ATOM     16  O3  <0> d          -0.009  -3.984  -2.362  0.00  0.00    -0.272 OA
ATOM     17  N4  <0> d          -0.024  -6.100  -1.696  0.00  0.00    -0.355 N 
ATOM     18  H9  <0> d          -0.026  -6.734  -0.962  0.00  0.00     0.162 HD
BRANCH  17  19
ATOM     19  C11 <0> d          -0.036  -6.582  -3.080  0.00  0.00     0.161 C 
BRANCH  19  20
ATOM     20  C12 <0> d          -0.049  -8.089  -3.087  0.00  0.00    -0.039 A 
ATOM     21  C17 <0> d          -1.252  -8.769  -3.084  0.00  0.00     0.027 A 
ATOM     22  C16 <0> d          -1.264 -10.153  -3.096  0.00  0.00     0.011 A 
ATOM     23  C15 <0> d          -0.072 -10.854  -3.100  0.00  0.00     0.019 A 
ATOM     24 Br1  <0> d          -2.910 -11.084  -3.100  0.00  0.00    -0.051 Br
ATOM     25  C14 <0> d           1.131 -10.173  -3.097  0.00  0.00     0.002 A 
ATOM     26  C13 <0> d           1.142  -8.791  -3.090  0.00  0.00     0.009 A 
ENDBRANCH  19  20
ENDBRANCH  17  19
ENDBRANCH  14  15
ENDBRANCH   9  14
TORSDOF 4
