REMARK  5 active torsions:
REMARK  status: ('A' for Active; 'I' for Inactive)
REMARK    1  A    between atoms: C5_5  and  N1_9 
REMARK       I    between atoms: N1_9  and  C9_10 
REMARK    2  A    between atoms: C9_10  and  C10_12 
REMARK    3  A    between atoms: C10_12  and  N2_13 
REMARK       I    between atoms: N2_13  and  C11_14 
REMARK    4  A    between atoms: C11_14  and  C12_16 
REMARK    5  A    between atoms: C12_16  and  N3_17 
ROOT
ATOM      1  N2  <0> d          -3.239  -1.123   2.278  0.00  0.00    -0.351 N 
ATOM      2  C11 <0> d          -2.041  -0.553   2.041  0.00  0.00     0.236 C 
ATOM      3  O2  <0> d          -1.690   0.410   2.689  0.00  0.00    -0.272 OA
ATOM      4  H13 <0> d          -3.520  -1.894   1.760  0.00  0.00     0.163 HD
ENDROOT
BRANCH   2   5
ATOM      5  C12 <0> d          -1.139  -1.111   0.971  0.00  0.00     0.235 C 
BRANCH   5   6
ATOM      6  N3  <0> d           0.094  -0.321   0.911  0.00  0.00    -0.299 N 
ATOM      7  C16 <0> d           1.144  -0.678   1.673  0.00  0.00     0.262 A 
ATOM      8  C15 <0> d           2.347   0.098   1.603  0.00  0.00     0.075 A 
ATOM      9  O3  <0> d           1.075  -1.648   2.408  0.00  0.00    -0.267 OA
ATOM     10  C14 <0> d           2.313   1.192   0.723  0.00  0.00     0.115 A 
ATOM     11  C17 <0> d           3.602  -0.103   2.326  0.00  0.00    -0.026 A 
ATOM     12  N4  <0> d           1.233   1.486   0.004  0.00  0.00    -0.235 NA
ATOM     13  S1  <0> d           3.929   1.906   0.890  0.00  0.00    -0.073 SA
ATOM     14  C13 <0> d           0.151   0.760   0.090  0.00  0.00     0.214 A 
ATOM     15  C18 <0> d           4.597   0.776   2.082  0.00  0.00    -0.008 A 
ATOM     16  C19 <0> d           5.967   0.788   2.688  0.00  0.00     0.051 C 
ATOM     17  C20 <0> d           6.210  -0.571   3.361  0.00  0.00    -0.014 C 
ATOM     18  C21 <0> d           4.990  -0.920   4.218  0.00  0.00     0.009 C 
ATOM     19  C23 <0> d           7.454  -0.489   4.248  0.00  0.00     0.010 C 
ATOM     20  C22 <0> d           3.798  -1.247   3.317  0.00  0.00     0.041 C 
ENDBRANCH   5   6
ENDBRANCH   2   5
BRANCH   1  21
ATOM     21  C10 <0> d          -4.116  -0.581   3.318  0.00  0.00     0.225 C 
BRANCH  21  22
ATOM     22  C9  <0> d          -5.384  -1.393   3.380  0.00  0.00     0.239 C 
ATOM     23  N1  <0> d          -6.345  -1.076   4.270  0.00  0.00    -0.325 N 
ATOM     24  H10 <0> d          -6.192  -0.369   4.917  0.00  0.00     0.169 HD
ATOM     25  O1  <0> d          -5.539  -2.333   2.630  0.00  0.00    -0.271 OA
BRANCH  23  26
ATOM     26  C5  <0> d          -7.563  -1.765   4.261  0.00  0.00     0.046 A 
ATOM     27  C4  <0> d          -8.283  -1.889   3.079  0.00  0.00    -0.034 A 
ATOM     28  C3  <0> d          -9.485  -2.569   3.073  0.00  0.00     0.015 A 
ATOM     29  C24 <0> d          -7.754  -1.280   1.806  0.00  0.00     0.050 C 
ATOM     30  C2  <0> d          -9.971  -3.127   4.241  0.00  0.00    -0.061 A 
ATOM     31  C1  <0> d         -11.283  -3.869   4.231  0.00  0.00     0.048 C 
ATOM     32  C7  <0> d          -9.257  -3.005   5.419  0.00  0.00     0.015 A 
ATOM     33  C6  <0> d          -8.051  -2.331   5.431  0.00  0.00    -0.034 A 
ATOM     34  C8  <0> d          -7.270  -2.204   6.713  0.00  0.00     0.050 C 
ENDBRANCH  23  26
ENDBRANCH  21  22
ENDBRANCH   1  21
TORSDOF 5
