REMARK  3 active torsions:
REMARK  status: ('A' for Active; 'I' for Inactive)
REMARK    1  A    between atoms: C6_6  and  N1_8 
REMARK    2  A    between atoms: C11_13  and  C12_15 
REMARK       I    between atoms: C12_15  and  N3_17 
REMARK    3  A    between atoms: N3_17  and  C13_18 
ROOT
ATOM      1  C13 <0> d          -0.047   3.852   0.015  0.00  0.00     0.036 A 
ATOM      2  C14 <0> d          -1.077   3.143   0.624  0.00  0.00     0.029 A 
ATOM      3  C15 <0> d          -1.072   1.761   0.611  0.00  0.00     0.004 A 
ATOM      4  C16 <0> d          -0.046   1.076  -0.008  0.00  0.00     0.021 A 
ATOM      5  C17 <0> d           0.995   1.778  -0.617  0.00  0.00     0.019 A 
ATOM      6  C18 <0> d           0.988   3.172  -0.609  0.00  0.00     0.050 A 
ATOM      7  C19 <0> d           2.064   1.069  -1.254  0.00  0.00    -0.078 C 
ATOM      8  C20 <0> d           2.940   0.488  -1.776  0.00  0.00     0.018 C 
ENDROOT
BRANCH   1   9
ATOM      9  N3  <0> d          -0.056   5.250   0.030  0.00  0.00    -0.322 N 
ATOM     10  C12 <0> d           1.103   5.931   0.125  0.00  0.00     0.272 C 
ATOM     11  O2  <0> d           2.163   5.332   0.112  0.00  0.00    -0.266 OA
ATOM     12  H11 <0> d          -1.010   5.795  -0.035  0.00  0.00     0.169 HD
BRANCH  10  13
ATOM     13  C11 <0> d           1.088   7.392   0.244  0.00  0.00     0.123 C 
ATOM     14  C10 <0> d           2.389   8.142   0.355  0.00  0.00     0.076 C 
ATOM     15  C9  <0> d           2.262   9.493  -0.358  0.00  0.00     0.111 C 
ATOM     16  C8  <0> d           0.984  10.163   0.078  0.00  0.00     0.245 C 
ATOM     17  N1  <0> d          -0.099   9.415   0.366  0.00  0.00    -0.200 N 
ATOM     18  O1  <0> d           0.931  11.371   0.170  0.00  0.00    -0.271 OA
ATOM     19  N2  <0> d          -0.046   8.022   0.256  0.00  0.00    -0.164 NA
BRANCH  17  20
ATOM     20  C6  <0> d          -1.285  10.036   0.777  0.00  0.00     0.068 A 
ATOM     21  C5  <0> d          -2.469   9.796   0.094  0.00  0.00    -0.033 A 
ATOM     22  C4  <0> d          -3.638  10.406   0.505  0.00  0.00     0.009 A 
ATOM     23  C21 <0> d          -2.481   8.866  -1.092  0.00  0.00     0.050 C 
ATOM     24  C3  <0> d          -3.627  11.264   1.590  0.00  0.00     0.007 A 
ATOM     25  C2  <0> d          -2.448  11.510   2.269  0.00  0.00    -0.060 A 
ATOM     26  C1  <0> d          -2.440  12.446   3.450  0.00  0.00     0.048 C 
ATOM     27  C7  <0> d          -1.277  10.899   1.866  0.00  0.00     0.039 A 
ENDBRANCH  17  20
ENDBRANCH  10  13
ENDBRANCH   1   9
TORSDOF 3
