REMARK  5 active torsions:
REMARK  status: ('A' for Active; 'I' for Inactive)
REMARK    1  A    between atoms: C9_10  and  C10_11 
REMARK       I    between atoms: C10_11  and  N2_13 
REMARK    2  A    between atoms: N2_13  and  C11_14 
REMARK    3  A    between atoms: C11_14  and  C12_15 
REMARK    4  A    between atoms: C12_15  and  C13_16 
REMARK    5  A    between atoms: C13_16  and  N3_17 
ROOT
ATOM      1  C10 <0> d           4.674   0.015   0.896  0.00  0.00     0.255 C 
ATOM      2  O1  <0> d           4.876  -0.442   2.001  0.00  0.00    -0.271 OA
ATOM      3  N2  <0> d           5.294   1.148   0.512  0.00  0.00    -0.359 N 
ATOM      4  H11 <0> d           5.133   1.514  -0.372  0.00  0.00     0.162 HD
ENDROOT
BRANCH   1   5
ATOM      5  C9  <0> d           3.730  -0.684  -0.048  0.00  0.00     0.345 C 
ATOM      6  C4  <0> d           2.395   0.013  -0.024  0.00  0.00    -0.010 A 
ATOM      7  C3  <0> d           2.374   1.400  -0.015  0.00  0.00     0.010 A 
ATOM      8  C5  <0> d           1.208  -0.688  -0.012  0.00  0.00    -0.048 A 
ATOM      9  C2  <0> d           1.173   2.080   0.002  0.00  0.00     0.001 A 
ATOM     10  C1  <0> d          -0.017   1.376   0.010  0.00  0.00     0.001 A 
ATOM     11  C6  <0> d           0.002  -0.004   0.002  0.00  0.00     0.008 A 
ATOM     12  C7  <0> d           1.180  -2.195  -0.009  0.00  0.00     0.069 C 
ATOM     13  C8  <0> d           2.541  -2.744  -0.440  0.00  0.00     0.275 C 
ATOM     14  N1  <0> d           3.585  -2.085   0.361  0.00  0.00     0.101 N 
ATOM     15  H10 <0> d           3.382  -2.155   1.347  0.00  0.00     0.317 HD
ENDBRANCH   1   5
BRANCH   3  16
ATOM     16  C11 <0> d           6.212   1.828   1.430  0.00  0.00     0.124 C 
BRANCH  16  17
ATOM     17  C12 <0> d           6.776   3.079   0.753  0.00  0.00     0.040 C 
BRANCH  17  18
ATOM     18  C13 <0> d           7.735   3.788   1.711  0.00  0.00     0.130 C 
BRANCH  18  19
ATOM     19  N3  <0> d           8.275   4.986   1.064  0.00  0.00    -0.352 N 
ATOM     20  C16 <0> d           7.744   6.227   1.103  0.00  0.00     0.182 A 
ATOM     21  N4  <0> d           8.505   7.030   0.411  0.00  0.00    -0.361 N 
ATOM     22  C15 <0> d           9.535   6.336  -0.096  0.00  0.00     0.106 A 
ATOM     23  H21 <0> d           8.350   7.979   0.281  0.00  0.00     0.166 HD
ATOM     24  C14 <0> d           9.410   5.055   0.301  0.00  0.00     0.108 A 
ENDBRANCH  18  19
ENDBRANCH  17  18
ENDBRANCH  16  17
ENDBRANCH   3  16
TORSDOF 5
