REMARK  3 active torsions:
REMARK  status: ('A' for Active; 'I' for Inactive)
REMARK    1  A    between atoms: C3_3  and  N1_9 
REMARK    2  A    between atoms: N1_9  and  C8_10 
REMARK    3  A    between atoms: C16_19  and  N3_20 
ROOT
ATOM      1  C8  <0> d           0.107  -0.679  -3.616  0.00  0.00     0.073 A 
ATOM      2  C9  <0> d           0.516  -0.018  -4.796  0.00  0.00     0.021 A 
ATOM      3  C10 <0> d           0.835   1.348  -4.794  0.00  0.00     0.035 A 
ATOM      4  C11 <0> d           1.225   1.951  -5.952  0.00  0.00     0.011 A 
ATOM      5  C12 <0> d           1.311   1.226  -7.140  0.00  0.00     0.021 A 
ATOM      6  C13 <0> d           1.009  -0.100  -7.177  0.00  0.00     0.032 A 
ATOM      7  C14 <0> d           0.602  -0.757  -6.002  0.00  0.00     0.044 A 
ATOM      8  N2  <0> d           0.301  -2.060  -6.012  0.00  0.00    -0.363 N 
ATOM      9  C15 <0> d          -0.080  -2.689  -4.924  0.00  0.00     0.119 A 
ATOM     10  C16 <0> d          -0.186  -2.036  -3.698  0.00  0.00     0.069 A 
ATOM     11 Br1  <0> d           1.654   3.792  -5.948  0.00  0.00    -0.051 Br
ATOM     12  H14 <0> d           0.364  -2.552  -6.845  0.00  0.00     0.165 HD
ENDROOT
BRANCH   1  13
ATOM     13  N1  <0> d           0.007   0.005  -2.408  0.00  0.00    -0.353 N 
ATOM     14  H7  <0> d          -0.793   0.514  -2.204  0.00  0.00     0.166 HD
BRANCH  13  15
ATOM     15  C3  <0> d           1.060  -0.040  -1.490  0.00  0.00     0.040 A 
ATOM     16  C2  <0> d           1.013   0.735  -0.338  0.00  0.00    -0.014 A 
ATOM     17  C1  <0> d          -0.173   1.628  -0.077  0.00  0.00     0.052 C 
ATOM     18  C7  <0> d           2.058   0.692   0.565  0.00  0.00     0.042 A 
ATOM     19  C6  <0> d           3.145  -0.132   0.328  0.00  0.00     0.024 A 
ATOM     20 Cl1  <0> d           2.004   1.666   2.001  0.00  0.00    -0.084 Cl
ATOM     21  C5  <0> d           3.193  -0.905  -0.818  0.00  0.00     0.004 A 
ATOM     22  C4  <0> d           2.155  -0.861  -1.727  0.00  0.00     0.030 A 
ENDBRANCH  13  15
ENDBRANCH   1  13
BRANCH  10  23
ATOM     23  N3  <0> d          -0.589  -2.741  -2.555  0.00  0.00    -0.396 N 
ATOM     24  H12 <0> d          -0.741  -2.268  -1.722  0.00  0.00     0.156 HD
ATOM     25  H13 <0> d          -0.717  -3.701  -2.598  0.00  0.00     0.156 HD
ENDBRANCH  10  23
TORSDOF 3
