REMARK  5 active torsions:
REMARK  status: ('A' for Active; 'I' for Inactive)
REMARK    1  A    between atoms: S1_2  and  C2_3 
REMARK    2  A    between atoms: C2_3  and  N3_16 
REMARK    3  A    between atoms: N1_4  and  N2_5 
REMARK    4  A    between atoms: C3_6  and  C4_7 
REMARK    5  A    between atoms: C9_12  and  O1_13 
ROOT
ATOM      1  C4  <0> d           0.331  -4.937   0.418  0.00  0.00     0.019 A 
ATOM      2  C5  <0> d           0.537  -6.281   0.742  0.00  0.00     0.035 A 
ATOM      3  C6  <0> d           0.061  -7.270  -0.093  0.00  0.00     0.013 A 
ATOM      4  C7  <0> d          -0.622  -6.937  -1.251  0.00  0.00     0.041 A 
ATOM      5  C8  <0> d          -0.833  -5.611  -1.583  0.00  0.00     0.046 A 
ATOM      6  C9  <0> d          -0.366  -4.605  -0.753  0.00  0.00     0.094 A 
ATOM      7 Br1  <0> d          -1.767  -5.171  -3.167  0.00  0.00    -0.048 Br
ATOM      8 Br2  <0> d           0.341  -9.088   0.345  0.00  0.00    -0.051 Br
ENDROOT
BRANCH   1   9
ATOM      9  C3  <0> d           0.836  -3.876   1.304  0.00  0.00     0.153 C 
ATOM     10  N2  <0> d           0.636  -2.623   1.001  0.00  0.00    -0.184 NA
BRANCH  10  11
ATOM     11  N1  <0> d           1.079  -1.693   1.778  0.00  0.00    -0.258 N 
ATOM     12  C2  <0> d           0.877  -0.427   1.472  0.00  0.00     0.153 C 
ATOM     13  H10 <0> d           1.560  -1.925   2.587  0.00  0.00     0.191 HD
BRANCH  12  14
ATOM     14  S1  <0> d           0.002  -0.004   0.002  0.00  0.00    -0.098 SA
ATOM     15  C1  <0> d          -0.022   1.810   0.012  0.00  0.00     0.099 C 
ENDBRANCH  12  14
BRANCH  12  16
ATOM     16  N3  <0> d           1.348   0.563   2.299  0.00  0.00    -0.379 N 
ATOM     17  H8  <0> d           1.200   1.495   2.074  0.00  0.00     0.158 HD
ATOM     18  H9  <0> d           1.830   0.331   3.108  0.00  0.00     0.158 HD
ENDBRANCH  12  16
ENDBRANCH  10  11
ENDBRANCH   1   9
BRANCH   6  19
ATOM     19  O1  <0> d          -0.578  -3.302  -1.075  0.00  0.00    -0.358 OA
ATOM     20  H7  <0> d           0.122  -2.912  -1.617  0.00  0.00     0.217 HD
ENDBRANCH   6  19
TORSDOF 5
