REMARK  4 active torsions:
REMARK  status: ('A' for Active; 'I' for Inactive)
REMARK    1  A    between atoms: N1_4  and  C8_12 
REMARK    2  A    between atoms: C6_7  and  N4_11 
REMARK    3  A    between atoms: C8_12  and  C10_14 
REMARK    4  A    between atoms: C10_14  and  N5_15 
ROOT
ATOM      1  C1  <0> d          -0.018   1.503   0.010  0.00  0.00     0.051 C 
ATOM      2  C2  <0> d           0.002  -0.004   0.002  0.00  0.00    -0.022 A 
ATOM      3  C3  <0> d           0.008  -0.799  -1.081  0.00  0.00     0.017 A 
ATOM      4  N1  <0> d           0.028  -2.113  -0.692  0.00  0.00    -0.328 N 
ATOM      5  C4  <0> d           0.035  -2.198   0.673  0.00  0.00     0.146 A 
ATOM      6  C5  <0> d           0.026  -0.882   1.171  0.00  0.00     0.063 A 
ATOM      7  C6  <0> d           0.036  -0.687   2.560  0.00  0.00     0.137 A 
ATOM      8  N2  <0> d           0.058  -1.759   3.347  0.00  0.00    -0.224 NA
ATOM      9  C7  <0> d           0.070  -2.978   2.838  0.00  0.00     0.237 A 
ATOM     10  N3  <0> d           0.052  -3.207   1.543  0.00  0.00    -0.223 NA
ATOM     11  C15 <0> d          -0.005  -0.318  -2.509  0.00  0.00     0.069 C 
ENDROOT
BRANCH   4  12
ATOM     12  C8  <0> d           0.039  -3.259  -1.605  0.00  0.00     0.113 C 
ATOM     13  C9  <0> d          -1.198  -4.124  -1.352  0.00  0.00     0.034 C 
BRANCH  12  14
ATOM     14  C10 <0> d           1.300  -4.091  -1.364  0.00  0.00     0.260 C 
BRANCH  14  15
ATOM     15  N5  <0> d           1.372  -5.170  -2.358  0.00  0.00    -0.069 N 
ATOM     16  C14 <0> d           2.521  -6.055  -2.067  0.00  0.00     0.235 C 
ATOM     17  C13 <0> d           3.094  -6.511  -3.422  0.00  0.00     0.029 C 
ATOM     18  C12 <0> d           2.221  -5.808  -4.487  0.00  0.00     0.029 C 
ATOM     19  C11 <0> d           1.626  -4.607  -3.709  0.00  0.00     0.235 C 
ATOM     20  H24 <0> d           0.514  -5.702  -2.357  0.00  0.00     0.280 HD
ENDBRANCH  14  15
ENDBRANCH  12  14
ENDBRANCH   4  12
BRANCH   7  21
ATOM     21  N4  <0> d           0.025   0.587   3.098  0.00  0.00    -0.383 N 
ATOM     22  H6  <0> d           0.009   1.361   2.512  0.00  0.00     0.157 HD
ATOM     23  H7  <0> d           0.032   0.708   4.060  0.00  0.00     0.157 HD
ENDBRANCH   7  21
TORSDOF 4
