REMARK  6 active torsions:
REMARK  status: ('A' for Active; 'I' for Inactive)
REMARK    1  A    between atoms: C4_4  and  C7_7 
REMARK    2  A    between atoms: C9_9  and  C20_27 
REMARK    3  A    between atoms: C10_10  and  N1_12 
REMARK       I    between atoms: N1_12  and  C11_13 
REMARK    4  A    between atoms: C11_13  and  C12_15 
REMARK    5  A    between atoms: C12_15  and  S2_16 
REMARK    6  A    between atoms: S2_16  and  C13_17 
REMARK       I    between atoms: C20_27  and  N4_29 
ROOT
ATOM      1  C7  <0> d          -3.667  -1.146   0.014  0.00  0.00     0.018 A 
ATOM      2  C8  <0> d          -2.457  -0.522   0.011  0.00  0.00     0.039 A 
ATOM      3  C9  <0> d          -2.448   0.873   0.018  0.00  0.00     0.067 A 
ATOM      4  C10 <0> d          -3.677   1.528   0.033  0.00  0.00     0.093 A 
ATOM      5  S1  <0> d          -4.813   0.219   0.026  0.00  0.00    -0.071 SA
ENDROOT
BRANCH   4   6
ATOM      6  N1  <0> d          -3.929   2.890   0.048  0.00  0.00    -0.320 N 
ATOM      7  C11 <0> d          -5.200   3.340   0.061  0.00  0.00     0.232 C 
ATOM      8  O1  <0> d          -6.122   2.552   0.060  0.00  0.00    -0.272 OA
ATOM      9  H8  <0> d          -3.093   3.604   0.048  0.00  0.00     0.169 HD
BRANCH   7  10
ATOM     10  C12 <0> d          -5.474   4.822   0.076  0.00  0.00     0.185 C 
BRANCH  10  11
ATOM     11  S2  <0> d          -7.262   5.104   0.091  0.00  0.00    -0.083 SA
BRANCH  11  12
ATOM     12  C13 <0> d          -7.293   6.865   0.108  0.00  0.00     0.168 A 
ATOM     13  N3  <0> d          -6.235   7.638   0.114  0.00  0.00    -0.223 NA
ATOM     14  C19 <0> d          -6.620   8.941   0.123  0.00  0.00     0.086 A 
ATOM     15  C14 <0> d          -8.024   8.957   0.133  0.00  0.00     0.063 A 
ATOM     16  C18 <0> d          -5.918  10.149   0.130  0.00  0.00     0.034 A 
ATOM     17  N2  <0> d          -8.425   7.631   0.123  0.00  0.00    -0.333 N 
ATOM     18  C15 <0> d          -8.703  10.166   0.149  0.00  0.00     0.032 A 
ATOM     19  H1  <0> d          -9.415   7.149   0.126  0.00  0.00     0.168 HD
ATOM     20  C16 <0> d          -7.995  11.350   0.155  0.00  0.00     0.002 A 
ATOM     21  C17 <0> d          -6.609  11.340   0.146  0.00  0.00     0.002 A 
ENDBRANCH  11  12
ENDBRANCH  10  11
ENDBRANCH   7  10
ENDBRANCH   4   6
BRANCH   3  22
ATOM     22  C20 <0> d          -1.187   1.624   0.017  0.00  0.00     0.252 C 
ATOM     23  O2  <0> d          -1.204   2.841   0.023  0.00  0.00    -0.268 OA
ATOM     24  N4  <0> d          -0.011   0.966   0.007  0.00  0.00    -0.366 N 
ATOM     25  H15 <0> d           0.934   1.529   0.006  0.00  0.00     0.159 HD
ATOM     26  H16 <0> d           0.004  -0.134   0.001  0.00  0.00     0.159 HD
ENDBRANCH   3  22
BRANCH   1  27
ATOM     27  C4  <0> d          -3.957  -2.595   0.007  0.00  0.00    -0.019 A 
ATOM     28  C3  <0> d          -5.279  -3.045   0.011  0.00  0.00     0.013 A 
ATOM     29  C2  <0> d          -5.543  -4.399   0.005  0.00  0.00     0.001 A 
ATOM     30  C1  <0> d          -4.502  -5.310  -0.004  0.00  0.00     0.000 A 
ATOM     31  C6  <0> d          -3.190  -4.871  -0.008  0.00  0.00     0.001 A 
ATOM     32  C5  <0> d          -2.912  -3.519  -0.008  0.00  0.00     0.013 A 
ENDBRANCH   1  27
TORSDOF 6
