REMARK  3 active torsions:
REMARK  status: ('A' for Active; 'I' for Inactive)
REMARK    1  A    between atoms: C4_4  and  C7_7 
REMARK    2  A    between atoms: C9_12  and  O2_15 
REMARK    3  A    between atoms: O2_15  and  C11_16 
ROOT
ATOM      1  C7  <0> d           3.415   3.524  -0.201  0.00  0.00     0.140 A 
ATOM      2  N1  <0> d           2.237   4.192  -0.030  0.00  0.00    -0.305 N 
ATOM      3  H1  <0> d           2.233   5.289   0.046  0.00  0.00     0.170 HD
ATOM      4  C8  <0> d           1.080   3.501   0.043  0.00  0.00     0.282 A 
ATOM      5  O1  <0> d           0.017   4.080   0.196  0.00  0.00    -0.265 OA
ATOM      6  C9  <0> d           1.125   2.091  -0.059  0.00  0.00     0.161 A 
ATOM      7  C10 <0> d           2.337   1.481  -0.224  0.00  0.00     0.162 A 
ATOM      8  N2  <0> d           3.449   2.213  -0.295  0.00  0.00    -0.239 NA
ENDROOT
BRANCH   6   9
ATOM      9  O2  <0> d          -0.016   1.354   0.009  0.00  0.00    -0.304 OA
BRANCH   9  10
ATOM     10  C11 <0> d           0.098   0.001   0.035  0.00  0.00     0.076 A 
ATOM     11  C16 <0> d           0.659  -0.628   1.138  0.00  0.00     0.037 A 
ATOM     12  C15 <0> d           0.774  -2.005   1.161  0.00  0.00     0.003 A 
ATOM     13  C14 <0> d           0.332  -2.755   0.087  0.00  0.00     0.000 A 
ATOM     14  C13 <0> d          -0.227  -2.131  -1.012  0.00  0.00     0.003 A 
ATOM     15  C12 <0> d          -0.350  -0.755  -1.038  0.00  0.00     0.037 A 
ENDBRANCH   9  10
ENDBRANCH   6   9
BRANCH   1  16
ATOM     16  C4  <0> d           4.677   4.289  -0.281  0.00  0.00     0.010 A 
ATOM     17  C3  <0> d           5.891   3.622  -0.455  0.00  0.00     0.015 A 
ATOM     18  C2  <0> d           7.065   4.343  -0.529  0.00  0.00     0.001 A 
ATOM     19  C1  <0> d           7.041   5.723  -0.432  0.00  0.00     0.000 A 
ATOM     20  C6  <0> d           5.841   6.390  -0.260  0.00  0.00     0.001 A 
ATOM     21  C5  <0> d           4.659   5.682  -0.189  0.00  0.00     0.015 A 
ENDBRANCH   1  16
TORSDOF 3
