REMARK  8 active torsions:
REMARK  status: ('A' for Active; 'I' for Inactive)
REMARK    1  A    between atoms: C7_11  and  C8_13 
REMARK    2  A    between atoms: C8_13  and  S2_14 
REMARK    3  A    between atoms: S2_14  and  C9_15 
REMARK    4  A    between atoms: C9_15  and  C11_17 
REMARK       I    between atoms: C11_17  and  N3_19 
REMARK    5  A    between atoms: N3_19  and  C12_20 
REMARK    6  A    between atoms: C12_20  and  C13_21 
REMARK    7  A    between atoms: C13_21  and  C14_22 
REMARK    8  A    between atoms: C13_21  and  N4_28 
ROOT
ATOM      1  C11 <0> d           0.478  -7.563   5.013  0.00  0.00     0.231 C 
ATOM      2  O2  <0> d           0.426  -7.886   3.845  0.00  0.00    -0.272 OA
ATOM      3  N3  <0> d           0.778  -8.480   5.953  0.00  0.00    -0.358 N 
ATOM      4  H12 <0> d           0.820  -8.222   6.887  0.00  0.00     0.162 HD
ENDROOT
BRANCH   1   5
ATOM      5  C9  <0> d           0.207  -6.135   5.412  0.00  0.00     0.135 C 
ATOM      6  C10 <0> d          -1.226  -6.014   5.933  0.00  0.00     0.031 C 
BRANCH   5   7
ATOM      7  S2  <0> d           0.421  -5.054   3.971  0.00  0.00    -0.147 SA
BRANCH   7   8
ATOM      8  C8  <0> d           0.214  -3.381   4.643  0.00  0.00     0.153 C 
BRANCH   8   9
ATOM      9  C7  <0> d           0.369  -2.372   3.535  0.00  0.00     0.117 A 
ATOM     10  N1  <0> d           0.251  -1.049   3.817  0.00  0.00    -0.310 N 
ATOM     11  C6  <0> d           0.382  -0.114   2.858  0.00  0.00     0.260 A 
ATOM     12  H1  <0> d           0.069  -0.772   4.729  0.00  0.00     0.170 HD
ATOM     13  C5  <0> d           0.652  -0.533   1.514  0.00  0.00     0.075 A 
ATOM     14  O1  <0> d           0.273   1.069   3.127  0.00  0.00    -0.267 OA
ATOM     15  C2  <0> d           0.833   0.270   0.319  0.00  0.00    -0.031 A 
ATOM     16  C4  <0> d           0.752  -1.922   1.319  0.00  0.00     0.116 A 
ATOM     17  C1  <0> d           0.745   1.772   0.389  0.00  0.00     0.050 C 
ATOM     18  C3  <0> d           1.084  -0.343  -0.850  0.00  0.00    -0.012 A 
ATOM     19  S1  <0> d           1.088  -2.072  -0.417  0.00  0.00    -0.074 SA
ATOM     20  C24 <0> d           1.309   0.283  -2.202  0.00  0.00     0.057 C 
ATOM     21  N2  <0> d           0.605  -2.785   2.319  0.00  0.00    -0.226 NA
ENDBRANCH   8   9
ENDBRANCH   7   8
ENDBRANCH   5   7
ENDBRANCH   1   5
BRANCH   3  22
ATOM     22  C12 <0> d           1.041  -9.868   5.565  0.00  0.00     0.160 C 
BRANCH  22  23
ATOM     23  C13 <0> d           1.485 -10.666   6.793  0.00  0.00     0.238 C 
BRANCH  23  24
ATOM     24  C14 <0> d           2.811 -10.141   7.281  0.00  0.00    -0.026 A 
ATOM     25  C19 <0> d           2.858  -9.275   8.357  0.00  0.00     0.009 A 
ATOM     26  C18 <0> d           4.074  -8.798   8.807  0.00  0.00     0.001 A 
ATOM     27  C17 <0> d           5.243  -9.178   8.175  0.00  0.00     0.000 A 
ATOM     28  C16 <0> d           5.196 -10.040   7.095  0.00  0.00     0.001 A 
ATOM     29  C15 <0> d           3.979 -10.521   6.648  0.00  0.00     0.009 A 
ENDBRANCH  23  24
BRANCH  23  30
ATOM     30  N4  <0> d           1.621 -12.084   6.433  0.00  0.00    -0.061 N 
ATOM     31  C23 <0> d           0.312 -12.633   6.020  0.00  0.00     0.236 C 
ATOM     32  C22 <0> d           0.258 -14.091   6.516  0.00  0.00     0.029 C 
ATOM     33  C21 <0> d           1.596 -14.315   7.256  0.00  0.00     0.029 C 
ATOM     34  C20 <0> d           2.038 -12.875   7.619  0.00  0.00     0.236 C 
ATOM     35  H31 <0> d           2.294 -12.190   5.689  0.00  0.00     0.280 HD
ENDBRANCH  23  30
ENDBRANCH  22  23
ENDBRANCH   3  22
TORSDOF 8
