REMARK  2 active torsions:
REMARK  status: ('A' for Active; 'I' for Inactive)
REMARK    1  A    between atoms: C4_4  and  C6_8 
REMARK       I    between atoms: C6_8  and  N3_10 
REMARK    2  A    between atoms: C8_12  and  C15_20 
REMARK       I    between atoms: C15_20  and  N5_22 
ROOT
ATOM      1  C6  <0> d           0.078  -3.478  -1.513  0.00  0.00     0.274 C 
ATOM      2  O1  <0> d           0.017  -3.448  -2.727  0.00  0.00    -0.266 OA
ATOM      3  N3  <0> d           0.063  -4.661  -0.867  0.00  0.00    -0.345 N 
ATOM      4  C7  <0> d           0.122  -4.898   0.595  0.00  0.00     0.141 C 
ATOM      5  C8  <0> d          -0.861  -6.065   0.841  0.00  0.00     0.106 C 
ATOM      6  C9  <0> d          -0.946  -6.797  -0.509  0.00  0.00    -0.007 C 
ATOM      7  C10 <0> d          -0.023  -6.018  -1.458  0.00  0.00     0.136 C 
ATOM      8  C11 <0> d          -0.461  -8.236  -0.362  0.00  0.00     0.039 C 
ATOM      9  C12 <0> d          -0.610  -8.960  -1.703  0.00  0.00     0.233 C 
ATOM     10  N4  <0> d          -2.017  -8.938  -2.119  0.00  0.00    -0.075 N 
ATOM     11  C13 <0> d          -2.450  -7.554  -2.349  0.00  0.00     0.233 C 
ATOM     12  C14 <0> d          -2.378  -6.770  -1.035  0.00  0.00     0.039 C 
ATOM     13  H17 <0> d          -2.123  -9.467  -2.972  0.00  0.00     0.277 HD
ATOM     14  H26 <0> d          -2.587  -9.351  -1.397  0.00  0.00     0.277 HD
ENDROOT
BRANCH   1  15
ATOM     15  C4  <0> d           0.170  -2.219  -0.746  0.00  0.00     0.146 A 
ATOM     16  C3  <0> d           0.196  -0.909  -1.279  0.00  0.00     0.065 A 
ATOM     17  C2  <0> d           0.285  -0.084  -0.209  0.00  0.00     0.028 A 
ATOM     18  C1  <0> d           0.345   1.421  -0.243  0.00  0.00     0.070 C 
ATOM     19  N2  <0> d           0.314  -0.863   0.894  0.00  0.00    -0.278 N 
ATOM     20  N1  <0> d           0.241  -2.102   0.565  0.00  0.00    -0.167 NA
ATOM     21  C5  <0> d           0.411  -0.365   2.268  0.00  0.00     0.179 C 
ENDBRANCH   1  15
BRANCH   5  22
ATOM     22  C15 <0> d          -0.325  -6.986   1.907  0.00  0.00     0.223 C 
ATOM     23  O2  <0> d           0.872  -7.122   2.045  0.00  0.00    -0.273 OA
ATOM     24  N5  <0> d          -1.177  -7.658   2.706  0.00  0.00    -0.365 N 
ATOM     25  C16 <0> d          -0.657  -8.553   3.743  0.00  0.00     0.149 C 
ATOM     26  H22 <0> d          -2.135  -7.549   2.596  0.00  0.00     0.161 HD
ENDBRANCH   5  22
TORSDOF 2
