REMARK  8 active torsions:
REMARK  status: ('A' for Active; 'I' for Inactive)
REMARK    1  A    between atoms: C5_6  and  C6_7 
REMARK       I    between atoms: C6_7  and  N1_9 
REMARK    2  A    between atoms: N1_9  and  N2_10 
REMARK       I    between atoms: N2_10  and  C7_11 
REMARK       I    between atoms: C7_11  and  N3_13 
REMARK    3  A    between atoms: N3_13  and  C8_14 
REMARK    4  A    between atoms: C8_14  and  C9_15 
REMARK    5  A    between atoms: C9_15  and  C10_16 
REMARK    6  A    between atoms: C10_16  and  N4_17 
REMARK    7  A    between atoms: N4_17  and  C12_19 
REMARK    8  A    between atoms: C12_19  and  C13_20 
ROOT
ATOM      1  N2  <0> d           1.280  -0.866   4.672  0.00  0.00    -0.249 N 
ATOM      2  C7  <0> d           0.948  -1.694   5.683  0.00  0.00     0.334 C 
ATOM      3  O2  <0> d           0.629  -1.237   6.763  0.00  0.00    -0.246 OA
ATOM      4  N3  <0> d           0.970  -3.029   5.495  0.00  0.00    -0.342 N 
ATOM      5  H7  <0> d           1.264   0.094   4.807  0.00  0.00     0.192 HD
ATOM      6  H8  <0> d           1.225  -3.393   4.633  0.00  0.00     0.164 HD
ENDROOT
BRANCH   1   7
ATOM      7  N1  <0> d           1.647  -1.392   3.427  0.00  0.00    -0.261 N 
ATOM      8  C6  <0> d           1.978  -0.564   2.416  0.00  0.00     0.277 C 
ATOM      9  O1  <0> d           1.958   0.641   2.586  0.00  0.00    -0.265 OA
ATOM     10  H6  <0> d           1.663  -2.353   3.292  0.00  0.00     0.190 HD
BRANCH   8  11
ATOM     11  C5  <0> d           2.363  -1.115   1.113  0.00  0.00     0.080 A 
ATOM     12  C2  <0> d           2.734  -0.446  -0.043  0.00  0.00    -0.039 A 
ATOM     13  C1  <0> d           2.796   1.058  -0.114  0.00  0.00     0.050 C 
ATOM     14  C3  <0> d           3.049  -1.242  -1.118  0.00  0.00     0.015 A 
ATOM     15  C4  <0> d           2.973  -2.590  -0.985  0.00  0.00     0.051 A 
ATOM     16  S1  <0> d           2.472  -2.819   0.602  0.00  0.00    -0.096 SA
ENDBRANCH   8  11
ENDBRANCH   1   7
BRANCH   4  17
ATOM     17  C8  <0> d           0.610  -3.929   6.593  0.00  0.00     0.126 C 
BRANCH  17  18
ATOM     18  C9  <0> d           0.717  -5.380   6.120  0.00  0.00     0.047 C 
BRANCH  18  19
ATOM     19  C10 <0> d           0.341  -6.320   7.266  0.00  0.00     0.236 C 
BRANCH  19  20
ATOM     20  N4  <0> d           0.444  -7.713   6.812  0.00  0.00    -0.067 N 
ATOM     21  C11 <0> d          -0.555  -7.960   5.763  0.00  0.00     0.269 C 
ATOM     22  H20 <0> d           1.368  -7.879   6.442  0.00  0.00     0.279 HD
BRANCH  20  23
ATOM     23  C12 <0> d           0.199  -8.617   7.944  0.00  0.00     0.351 C 
BRANCH  23  24
ATOM     24  C13 <0> d           0.406 -10.064   7.494  0.00  0.00     0.411 C 
ATOM     25  F1  <0> d           1.666 -10.193   6.900  0.00  0.00    -0.169 F 
ATOM     26  F2  <0> d           0.323 -10.914   8.602  0.00  0.00    -0.169 F 
ATOM     27  F3  <0> d          -0.584 -10.410   6.567  0.00  0.00    -0.169 F 
ENDBRANCH  23  24
ENDBRANCH  20  23
ENDBRANCH  19  20
ENDBRANCH  18  19
ENDBRANCH  17  18
ENDBRANCH   4  17
TORSDOF 8
