REMARK  7 active torsions:
REMARK  status: ('A' for Active; 'I' for Inactive)
REMARK    1  A    between atoms: C7_8  and  N2_13 
REMARK    2  A    between atoms: C8_9  and  C9_10 
REMARK       I    between atoms: C9_10  and  N1_12 
REMARK       I    between atoms: N2_13  and  C10_14 
REMARK    3  A    between atoms: C10_14  and  C11_16 
REMARK    4  A    between atoms: C11_16  and  O3_17 
REMARK    5  A    between atoms: O3_17  and  C12_18 
REMARK    6  A    between atoms: C12_18  and  C13_20 
REMARK    7  A    between atoms: C13_20  and  N3_21 
ROOT
ATOM      1  N2  <0> d          -0.242   1.246   2.466  0.00  0.00    -0.319 N 
ATOM      2  C10 <0> d          -0.718   1.572   1.248  0.00  0.00     0.246 C 
ATOM      3  O2  <0> d          -1.714   2.256   1.150  0.00  0.00    -0.271 OA
ATOM      4  H11 <0> d           0.555   0.699   2.544  0.00  0.00     0.169 HD
ENDROOT
BRANCH   1   5
ATOM      5  C7  <0> d          -0.891   1.693   3.607  0.00  0.00     0.093 A 
ATOM      6  S1  <0> d          -2.316   2.672   3.721  0.00  0.00    -0.075 SA
ATOM      7  C6  <0> d          -2.455   2.769   5.483  0.00  0.00    -0.008 A 
ATOM      8  C5  <0> d          -1.411   2.052   5.952  0.00  0.00    -0.026 A 
ATOM      9  C21 <0> d          -3.494   3.485   6.290  0.00  0.00     0.051 C 
ATOM     10  C4  <0> d          -1.178   1.893   7.449  0.00  0.00     0.041 C 
ATOM     11  C8  <0> d          -0.560   1.460   4.934  0.00  0.00     0.072 A 
ATOM     12  C3  <0> d          -2.474   2.231   8.188  0.00  0.00     0.009 C 
ATOM     13  C2  <0> d          -2.990   3.600   7.735  0.00  0.00    -0.014 C 
ATOM     14  C1  <0> d          -4.138   4.042   8.645  0.00  0.00     0.010 C 
BRANCH  11  15
ATOM     15  C9  <0> d           0.608   0.651   5.296  0.00  0.00     0.252 C 
ATOM     16  O1  <0> d           1.693   1.182   5.449  0.00  0.00    -0.268 OA
ATOM     17  N1  <0> d           0.480  -0.681   5.459  0.00  0.00    -0.366 N 
ATOM     18  H9  <0> d          -0.384  -1.104   5.337  0.00  0.00     0.159 HD
ATOM     19  H10 <0> d           1.253  -1.216   5.699  0.00  0.00     0.159 HD
ENDBRANCH  11  15
ENDBRANCH   1   5
BRANCH   2  20
ATOM     20  C11 <0> d          -0.013   1.086   0.008  0.00  0.00     0.281 C 
BRANCH  20  21
ATOM     21  O3  <0> d          -0.715   1.567  -1.168  0.00  0.00    -0.311 OA
BRANCH  21  22
ATOM     22  C12 <0> d          -0.211   1.220  -2.363  0.00  0.00     0.277 C 
ATOM     23  O4  <0> d           0.783   0.536  -2.424  0.00  0.00    -0.263 OA
BRANCH  22  24
ATOM     24  C13 <0> d          -0.887   1.682  -3.629  0.00  0.00     0.241 C 
BRANCH  24  25
ATOM     25  N3  <0> d          -0.150   1.174  -4.789  0.00  0.00    -0.330 N 
ATOM     26  C16 <0> d          -0.302  -0.066  -5.376  0.00  0.00     0.064 A 
ATOM     27  C15 <0> d           0.608  -0.102  -6.447  0.00  0.00     0.085 A 
ATOM     28  C17 <0> d          -1.112  -1.164  -5.121  0.00  0.00     0.032 A 
ATOM     29  N4  <0> d           1.254   1.092  -6.457  0.00  0.00    -0.242 NA
ATOM     30  C20 <0> d           0.686  -1.247  -7.243  0.00  0.00     0.034 A 
ATOM     31  C14 <0> d           0.807   1.840  -5.490  0.00  0.00     0.211 A 
ATOM     32  C19 <0> d          -0.118  -2.318  -6.977  0.00  0.00     0.002 A 
ATOM     33  C18 <0> d          -1.016  -2.283  -5.920  0.00  0.00     0.002 A 
ENDBRANCH  24  25
ENDBRANCH  22  24
ENDBRANCH  21  22
ENDBRANCH  20  21
ENDBRANCH   2  20
TORSDOF 7
