REMARK  6 active torsions:
REMARK  status: ('A' for Active; 'I' for Inactive)
REMARK    1  A    between atoms: C4_4  and  C7_8 
REMARK    2  A    between atoms: C7_8  and  N4_32 
REMARK    3  A    between atoms: C11_14  and  C12_15 
REMARK    4  A    between atoms: C12_15  and  C13_16 
REMARK       I    between atoms: C13_16  and  N2_18 
REMARK    5  A    between atoms: N2_18  and  C14_19 
REMARK    6  A    between atoms: C14_19  and  C15_20 
ROOT
ATOM      1  C8  <0> d           2.786  -9.710   3.407  0.00  0.00     0.256 C 
ATOM      2  C9  <0> d           3.704 -10.569   2.536  0.00  0.00     0.150 C 
ATOM      3  N1  <0> d           4.907  -9.820   2.186  0.00  0.00    -0.358 N 
ATOM      4  C10 <0> d           4.987  -8.488   2.277  0.00  0.00     0.249 C 
ATOM      5  O1  <0> d           6.015  -7.942   1.936  0.00  0.00    -0.271 OA
ATOM      6  C11 <0> d           3.856  -7.639   2.785  0.00  0.00     0.288 C 
ATOM      7  H11 <0> d           5.684 -10.309   1.872  0.00  0.00     0.162 HD
ATOM      8  N4  <0> d           2.599  -8.410   2.731  0.00  0.00    -0.052 N 
ATOM      9  H25 <0> d           2.349  -8.576   1.749  0.00  0.00     0.281 HD
ENDROOT
BRANCH   6  10
ATOM     10  C12 <0> d           3.716  -6.398   1.902  0.00  0.00     0.145 C 
BRANCH  10  11
ATOM     11  C13 <0> d           3.415  -6.819   0.487  0.00  0.00     0.220 C 
ATOM     12  O2  <0> d           3.220  -7.988   0.231  0.00  0.00    -0.274 OA
ATOM     13  N2  <0> d           3.362  -5.896  -0.494  0.00  0.00    -0.355 N 
ATOM     14  H14 <0> d           3.519  -4.961  -0.289  0.00  0.00     0.162 HD
BRANCH  13  15
ATOM     15  C14 <0> d           3.070  -6.306  -1.870  0.00  0.00     0.189 C 
BRANCH  15  16
ATOM     16  C15 <0> d           3.070  -5.094  -2.766  0.00  0.00     0.093 A 
ATOM     17  S1  <0> d           1.748  -4.045  -3.185  0.00  0.00    -0.076 SA
ATOM     18  C17 <0> d           2.665  -2.954  -4.237  0.00  0.00     0.009 A 
ATOM     19  C16 <0> d           3.919  -3.479  -4.188  0.00  0.00     0.048 A 
ATOM     20  C18 <0> d           2.205  -1.756  -4.996  0.00  0.00     0.048 C 
ATOM     21  N3  <0> d           4.066  -4.559  -3.429  0.00  0.00    -0.248 NA
ATOM     22  C21 <0> d           5.054  -2.832  -4.973  0.00  0.00     0.060 C 
ATOM     23  C20 <0> d           4.453  -1.939  -6.060  0.00  0.00     0.006 C 
ATOM     24  C19 <0> d           3.444  -0.965  -5.444  0.00  0.00     0.006 C 
ENDBRANCH  15  16
ENDBRANCH  13  15
ENDBRANCH  10  11
ENDBRANCH   6  10
BRANCH   8  25
ATOM     25  C7  <0> d           1.509  -7.650   3.384  0.00  0.00     0.279 C 
BRANCH  25  26
ATOM     26  C4  <0> d           0.269  -8.504   3.427  0.00  0.00     0.028 A 
ATOM     27  C3  <0> d           0.026  -9.319   4.519  0.00  0.00     0.126 A 
ATOM     28  C2  <0> d          -1.114 -10.103   4.558  0.00  0.00     0.043 A 
ATOM     29  F1  <0> d           0.902  -9.349   5.548  0.00  0.00    -0.205 F 
ATOM     30  C1  <0> d          -2.010 -10.072   3.505  0.00  0.00     0.005 A 
ATOM     31  C6  <0> d          -1.768  -9.259   2.414  0.00  0.00     0.024 A 
ATOM     32  C5  <0> d          -0.631  -8.470   2.377  0.00  0.00     0.045 A 
ATOM     33 Cl1  <0> d          -0.332  -7.443   1.010  0.00  0.00    -0.084 Cl
ENDBRANCH  25  26
ENDBRANCH   8  25
TORSDOF 6
