REMARK  6 active torsions:
REMARK  status: ('A' for Active; 'I' for Inactive)
REMARK    1  A    between atoms: C6_6  and  N1_8 
REMARK       I    between atoms: N1_8  and  C8_9 
REMARK    2  A    between atoms: C8_9  and  C9_11 
REMARK    3  A    between atoms: C9_11  and  N2_12 
REMARK    4  A    between atoms: C11_14  and  O3_26 
REMARK    5  A    between atoms: C14_18  and  C15_19 
REMARK    6  A    between atoms: C15_19  and  N3_30 
ROOT
ATOM      1  N2  <0> d          -0.375   5.082   0.579  0.00  0.00    -0.347 N 
ATOM      2  C10 <0> d          -0.263   3.736   0.429  0.00  0.00     0.132 A 
ATOM      3  C11 <0> d          -0.783   2.894   1.353  0.00  0.00     0.134 A 
ATOM      4  C12 <0> d          -1.439   3.434   2.488  0.00  0.00     0.208 A 
ATOM      5  O2  <0> d          -1.915   2.699   3.342  0.00  0.00    -0.285 OA
ATOM      6  C13 <0> d          -1.533   4.838   2.612  0.00  0.00     0.084 A 
ATOM      7  C14 <0> d          -0.998   5.625   1.652  0.00  0.00     0.041 A 
ENDROOT
BRANCH   1   8
ATOM      8  C9  <0> d           0.194   5.966  -0.442  0.00  0.00     0.231 C 
BRANCH   8   9
ATOM      9  C8  <0> d           1.579   6.387  -0.026  0.00  0.00     0.240 C 
ATOM     10  N1  <0> d           2.300   7.207  -0.816  0.00  0.00    -0.326 N 
ATOM     11  H7  <0> d           1.955   7.472  -1.683  0.00  0.00     0.169 HD
ATOM     12  O1  <0> d           2.046   5.989   1.021  0.00  0.00    -0.271 OA
BRANCH  10  13
ATOM     13  C6  <0> d           3.546   7.676  -0.385  0.00  0.00     0.035 A 
ATOM     14  C5  <0> d           4.370   6.862   0.380  0.00  0.00     0.036 A 
ATOM     15  C4  <0> d           5.600   7.327   0.802  0.00  0.00    -0.059 A 
ATOM     16  C3  <0> d           6.010   8.604   0.465  0.00  0.00     0.013 A 
ATOM     17  C23 <0> d           6.494   6.444   1.633  0.00  0.00     0.048 C 
ATOM     18  C2  <0> d           5.192   9.418  -0.297  0.00  0.00    -0.059 A 
ATOM     19  C1  <0> d           5.644  10.808  -0.662  0.00  0.00     0.048 C 
ATOM     20  C7  <0> d           3.964   8.956  -0.728  0.00  0.00     0.036 A 
ENDBRANCH  10  13
ENDBRANCH   8   9
ENDBRANCH   1   8
BRANCH   7  21
ATOM     21  C15 <0> d          -1.094   7.123   1.778  0.00  0.00     0.291 C 
BRANCH  21  22
ATOM     22  N3  <0> d           0.164   7.617   2.361  0.00  0.00    -0.066 N 
ATOM     23  C16 <0> d           0.314   7.088   3.759  0.00  0.00     0.235 C 
ATOM     24  C17 <0> d           1.396   7.788   4.535  0.00  0.00     0.028 C 
ATOM     25  C18 <0> d           0.748   8.906   5.379  0.00  0.00     0.002 C 
ATOM     26  C19 <0> d           0.442  10.089   4.584  0.00  0.00     0.002 C 
ATOM     27  C20 <0> d          -0.561   9.786   3.450  0.00  0.00     0.028 C 
ATOM     28  C21 <0> d           0.181   9.119   2.323  0.00  0.00     0.235 C 
ATOM     29  H32 <0> d           0.949   7.271   1.797  0.00  0.00     0.280 HD
ENDBRANCH  21  22
ENDBRANCH   7  21
BRANCH   3  30
ATOM     30  O3  <0> d          -0.671   1.546   1.198  0.00  0.00    -0.351 OA
ATOM     31  C22 <0> d           0.004   1.082   0.028  0.00  0.00     0.210 C 
ENDBRANCH   3  30
TORSDOF 6
