REMARK  3 active torsions:
REMARK  status: ('A' for Active; 'I' for Inactive)
REMARK    1  A    between atoms: C5_5  and  N1_7 
REMARK       I    between atoms: N1_7  and  C7_8 
REMARK    2  A    between atoms: C7_8  and  C8_10 
REMARK    3  A    between atoms: C12_16  and  C15_19 
ROOT
ATOM      1  C8  <0> d           0.117  -4.186   0.185  0.00  0.00     0.126 A 
ATOM      2  C9  <0> d          -0.974  -5.041   0.200  0.00  0.00     0.154 A 
ATOM      3  N2  <0> d          -0.525  -6.282   0.302  0.00  0.00    -0.240 NA
ATOM      4  C10 <0> d           0.806  -6.278   0.355  0.00  0.00     0.134 A 
ATOM      5  N3  <0> d           1.241  -4.986   0.279  0.00  0.00    -0.300 N 
ATOM      6  C11 <0> d           2.570  -4.699   0.306  0.00  0.00     0.106 A 
ATOM      7  C12 <0> d           3.487  -5.689   0.406  0.00  0.00    -0.038 A 
ATOM      8  C13 <0> d           3.073  -7.026   0.482  0.00  0.00     0.012 A 
ATOM      9  C14 <0> d           1.742  -7.322   0.464  0.00  0.00     0.051 A 
ENDROOT
BRANCH   1  10
ATOM     10  C7  <0> d           0.086  -2.772   0.087  0.00  0.00     0.274 C 
ATOM     11  N1  <0> d           1.234  -2.082  -0.060  0.00  0.00    -0.320 N 
ATOM     12  H5  <0> d           2.074  -2.555  -0.174  0.00  0.00     0.169 HD
ATOM     13  O1  <0> d          -0.978  -2.182   0.136  0.00  0.00    -0.266 OA
BRANCH  11  14
ATOM     14  C5  <0> d           1.216  -0.683  -0.049  0.00  0.00     0.057 A 
ATOM     15  C4  <0> d           2.325   0.024   0.399  0.00  0.00     0.060 A 
ATOM     16  C3  <0> d           2.303   1.406   0.407  0.00  0.00     0.026 A 
ATOM     17 Cl1  <0> d           3.736  -0.826   0.945  0.00  0.00    -0.082 Cl
ATOM     18  C2  <0> d           1.179   2.084  -0.029  0.00  0.00     0.002 A 
ATOM     19  C1  <0> d           0.075   1.382  -0.475  0.00  0.00     0.002 A 
ATOM     20  C6  <0> d           0.090   0.001  -0.487  0.00  0.00     0.031 A 
ENDBRANCH  11  14
ENDBRANCH   1  10
BRANCH   7  21
ATOM     21  C15 <0> d           4.956  -5.354   0.434  0.00  0.00     0.023 C 
ATOM     22  C19 <0> d           5.571  -5.857   1.743  0.00  0.00     0.037 C 
ATOM     23  C18 <0> d           7.077  -5.584   1.731  0.00  0.00     0.233 C 
ATOM     24  N4  <0> d           7.695  -6.283   0.598  0.00  0.00    -0.075 N 
ATOM     25  C17 <0> d           7.162  -5.755  -0.664  0.00  0.00     0.233 C 
ATOM     26  H15 <0> d           7.492  -7.269   0.661  0.00  0.00     0.277 HD
ATOM     27  H20 <0> d           8.694  -6.145   0.623  0.00  0.00     0.277 HD
ATOM     28  C16 <0> d           5.659  -6.035  -0.744  0.00  0.00     0.037 C 
ENDBRANCH   7  21
TORSDOF 3
