REMARK  7 active torsions:
REMARK  status: ('A' for Active; 'I' for Inactive)
REMARK    1  A    between atoms: C2_2  and  C3_3 
REMARK    2  A    between atoms: C3_3  and  C4_4 
REMARK    3  A    between atoms: C3_3  and  N3_21 
REMARK    4  A    between atoms: C4_4  and  C5_5 
REMARK    5  A    between atoms: C4_4  and  N2_11 
REMARK    6  A    between atoms: N2_11  and  C11_13 
REMARK    7  A    between atoms: C11_13  and  C12_14 
ROOT
ATOM      1  C4  <0> d          -1.413  -2.059   0.130  0.00  0.00     0.253 C 
ENDROOT
BRANCH   1   2
ATOM      2  C3  <0> d          -1.433  -0.534   0.013  0.00  0.00     0.252 C 
BRANCH   2   3
ATOM      3  C2  <0> d           0.002  -0.004   0.002  0.00  0.00     0.033 C 
ATOM      4  C1  <0> d          -0.019   1.526   0.010  0.00  0.00     0.007 C 
ENDBRANCH   2   3
BRANCH   2   5
ATOM      5  N3  <0> d          -2.107  -0.147  -1.234  0.00  0.00     0.085 N 
ATOM      6  H21 <0> d          -1.628  -0.527  -2.037  0.00  0.00     0.313 HD
ATOM      7  H22 <0> d          -3.076  -0.429  -1.224  0.00  0.00     0.313 HD
ENDBRANCH   2   5
ENDBRANCH   1   2
BRANCH   1   8
ATOM      8  C5  <0> d          -0.780  -2.649  -1.103  0.00  0.00    -0.023 A 
ATOM      9  C9  <0> d          -1.562  -3.171  -2.122  0.00  0.00     0.028 A 
ATOM     10  C8  <0> d          -0.946  -3.699  -3.241  0.00  0.00     0.116 A 
ATOM     11  N1  <0> d           0.369  -3.720  -3.340  0.00  0.00    -0.273 NA
ATOM     12  C7  <0> d           1.144  -3.238  -2.388  0.00  0.00     0.116 A 
ATOM     13  C6  <0> d           0.599  -2.689  -1.243  0.00  0.00     0.028 A 
ENDBRANCH   1   8
BRANCH   1  14
ATOM     14  N2  <0> d          -0.636  -2.449   1.314  0.00  0.00    -0.061 N 
ATOM     15  C10 <0> d          -1.254  -1.873   2.517  0.00  0.00     0.271 C 
ATOM     16  H23 <0> d           0.309  -2.106   1.224  0.00  0.00     0.280 HD
BRANCH  14  17
ATOM     17  C11 <0> d          -0.617  -3.913   1.427  0.00  0.00     0.273 C 
BRANCH  17  18
ATOM     18  C12 <0> d           0.280  -4.318   2.568  0.00  0.00    -0.033 A 
ATOM     19  C17 <0> d          -0.241  -4.458   3.841  0.00  0.00     0.010 A 
ATOM     20  C16 <0> d           0.580  -4.833   4.887  0.00  0.00     0.019 A 
ATOM     21  C15 <0> d           1.926  -5.059   4.663  0.00  0.00     0.011 A 
ATOM     22  C14 <0> d           2.449  -4.913   3.390  0.00  0.00     0.019 A 
ATOM     23 Br1  <0> d           3.052  -5.566   6.095  0.00  0.00    -0.051 Br
ATOM     24  C13 <0> d           1.625  -4.543   2.344  0.00  0.00     0.010 A 
ENDBRANCH  17  18
ENDBRANCH  14  17
ENDBRANCH   1  14
TORSDOF 7
