REMARK  7 active torsions:
REMARK  status: ('A' for Active; 'I' for Inactive)
REMARK    1  A    between atoms: C2_2  and  N1_3 
REMARK    2  A    between atoms: N1_3  and  C3_4 
REMARK    3  A    between atoms: N1_3  and  C10_11 
REMARK    4  A    between atoms: C11_12  and  N6_33 
REMARK    5  A    between atoms: C12_13  and  N4_17 
REMARK    6  A    between atoms: N5_20  and  C18_23 
REMARK    7  A    between atoms: C18_23  and  C19_24 
ROOT
ATOM      1  C10 <0> d          -0.125  -0.667  -2.312  0.00  0.00     0.139 A 
ATOM      2  C11 <0> d          -1.488  -0.366  -2.275  0.00  0.00     0.117 A 
ATOM      3  C12 <0> d          -2.245  -0.590  -3.426  0.00  0.00     0.157 A 
ATOM      4  N2  <0> d          -1.643  -1.079  -4.508  0.00  0.00    -0.224 NA
ATOM      5  C13 <0> d          -0.354  -1.350  -4.502  0.00  0.00     0.211 A 
ATOM      6  N3  <0> d           0.398  -1.148  -3.438  0.00  0.00    -0.335 N 
ATOM      7  H31 <0> d           1.344  -1.356  -3.475  0.00  0.00     0.168 HD
ENDROOT
BRANCH   3   8
ATOM      8  N4  <0> d          -3.606  -0.307  -3.442  0.00  0.00    -0.361 N 
ATOM      9  C17 <0> d          -4.104   0.983  -3.943  0.00  0.00     0.152 C 
ATOM     10  C16 <0> d          -5.217   0.704  -4.966  0.00  0.00     0.255 C 
ATOM     11  N5  <0> d          -6.244  -0.144  -4.348  0.00  0.00    -0.064 N 
ATOM     12  C15 <0> d          -5.676  -1.457  -4.017  0.00  0.00     0.255 C 
ATOM     13  H32 <0> d          -6.581   0.298  -3.506  0.00  0.00     0.280 HD
ATOM     14  C14 <0> d          -4.587  -1.288  -2.953  0.00  0.00     0.152 C 
BRANCH  11  15
ATOM     15  C18 <0> d          -7.362  -0.318  -5.286  0.00  0.00     0.273 C 
BRANCH  15  16
ATOM     16  C19 <0> d          -8.023   1.014  -5.532  0.00  0.00    -0.030 A 
ATOM     17  C24 <0> d          -7.585   1.822  -6.564  0.00  0.00     0.048 A 
ATOM     18  C23 <0> d          -8.195   3.044  -6.795  0.00  0.00     0.105 A 
ATOM     19  C22 <0> d          -9.243   3.460  -5.978  0.00  0.00     0.105 A 
ATOM     20  O1  <0> d          -7.962   4.010  -7.731  0.00  0.00    -0.323 OA
ATOM     21  C21 <0> d          -9.673   2.648  -4.942  0.00  0.00     0.040 A 
ATOM     22  O2  <0> d          -9.666   4.687  -6.402  0.00  0.00    -0.323 OA
ATOM     23  C20 <0> d          -9.063   1.427  -4.721  0.00  0.00     0.012 A 
ATOM     24  C25 <0> d          -9.141   4.835  -7.735  0.00  0.00     0.352 C 
ENDBRANCH  15  16
ENDBRANCH  11  15
ENDBRANCH   3   8
BRANCH   2  25
ATOM     25  N6  <0> d          -2.081   0.148  -1.110  0.00  0.00    -0.393 N 
ATOM     26  H29 <0> d          -1.560   0.229  -0.296  0.00  0.00     0.156 HD
ATOM     27  H30 <0> d          -3.012   0.421  -1.120  0.00  0.00     0.156 HD
ENDBRANCH   2  25
BRANCH   1  28
ATOM     28  N1  <0> d           0.674  -0.463  -1.193  0.00  0.00    -0.332 N 
BRANCH  28  29
ATOM     29  C2  <0> d           1.254   0.858  -0.938  0.00  0.00     0.126 C 
ATOM     30  C1  <0> d           2.677   0.906  -1.498  0.00  0.00     0.027 C 
ENDBRANCH  28  29
BRANCH  28  31
ATOM     31  C3  <0> d           0.924  -1.518  -0.311  0.00  0.00     0.036 A 
ATOM     32  C8  <0> d           1.637  -1.293   0.859  0.00  0.00     0.036 A 
ATOM     33  C7  <0> d           1.878  -2.337   1.731  0.00  0.00    -0.060 A 
ATOM     34  C6  <0> d           1.420  -3.607   1.434  0.00  0.00     0.007 A 
ATOM     35  C9  <0> d           2.645  -2.092   3.005  0.00  0.00     0.048 C 
ATOM     36  C5  <0> d           0.716  -3.837   0.266  0.00  0.00     0.003 A 
ATOM     37  C4  <0> d           0.466  -2.796  -0.607  0.00  0.00     0.029 A 
ENDBRANCH  28  31
ENDBRANCH   1  28
TORSDOF 7
