REMARK  8 active torsions:
REMARK  status: ('A' for Active; 'I' for Inactive)
REMARK    1  A    between atoms: C2_2  and  C14_24 
REMARK    2  A    between atoms: N1_3  and  N2_4 
REMARK    3  A    between atoms: N2_4  and  C3_5 
REMARK    4  A    between atoms: C4_7  and  S1_10 
REMARK    5  A    between atoms: S1_10  and  C5_11 
REMARK    6  A    between atoms: C5_11  and  C6_12 
REMARK       I    between atoms: C6_12  and  N6_14 
REMARK    7  A    between atoms: N6_14  and  N7_15 
REMARK       I    between atoms: N7_15  and  C7_16 
REMARK    8  A    between atoms: C7_16  and  C8_18 
ROOT
ATOM      1  C3  <0> d           0.044  -0.663   3.534  0.00  0.00     0.739 A 
ATOM      2  N3  <0> d           0.069  -1.973   3.665  0.00  0.00    -0.034 NA
ATOM      3  C4  <0> d           0.084  -2.296   4.962  0.00  0.00     0.226 A 
ATOM      4  N4  <0> d           0.069  -1.195   5.675  0.00  0.00    -0.132 NA
ATOM      5  N5  <0> d           0.049  -0.121   4.770  0.00  0.00    -0.103 N 
ATOM      6  H18 <0> d           0.038   0.824   4.990  0.00  0.00     0.208 HD
ENDROOT
BRANCH   3   7
ATOM      7  S1  <0> d           0.118  -3.934   5.609  0.00  0.00    -0.079 SA
BRANCH   7   8
ATOM      8  C5  <0> d           0.126  -3.696   7.408  0.00  0.00     0.187 C 
BRANCH   8   9
ATOM      9  C6  <0> d           0.154  -5.038   8.092  0.00  0.00     0.245 C 
ATOM     10  O1  <0> d           0.168  -6.055   7.432  0.00  0.00    -0.271 OA
ATOM     11  N6  <0> d           0.165  -5.108   9.438  0.00  0.00    -0.267 N 
ATOM     12  H7  <0> d           0.154  -4.294   9.966  0.00  0.00     0.190 HD
BRANCH  11  13
ATOM     13  N7  <0> d           0.192  -6.355  10.075  0.00  0.00    -0.263 N 
ATOM     14  C7  <0> d           0.202  -6.425  11.421  0.00  0.00     0.270 C 
ATOM     15  O2  <0> d           0.188  -5.406  12.082  0.00  0.00    -0.266 OA
ATOM     16  H8  <0> d           0.203  -7.169   9.547  0.00  0.00     0.190 HD
BRANCH  14  17
ATOM     17  C8  <0> d           0.230  -7.742  12.092  0.00  0.00     0.033 A 
ATOM     18  C13 <0> d           0.241  -7.818  13.486  0.00  0.00     0.017 A 
ATOM     19  C12 <0> d           0.262  -9.050  14.107  0.00  0.00     0.001 A 
ATOM     20  C11 <0> d           0.283 -10.208  13.351  0.00  0.00     0.000 A 
ATOM     21  C10 <0> d           0.279 -10.140  11.969  0.00  0.00     0.001 A 
ATOM     22  C9  <0> d           0.252  -8.915  11.336  0.00  0.00     0.017 A 
ENDBRANCH  14  17
ENDBRANCH  11  13
ENDBRANCH   8   9
ENDBRANCH   7   8
ENDBRANCH   3   7
BRANCH   1  23
ATOM     23  N2  <0> d           0.024   0.035   2.340  0.00  0.00    -0.106 N 
ATOM     24  H4  <0> d           0.011   1.004   2.345  0.00  0.00     0.208 HD
BRANCH  23  25
ATOM     25  N1  <0> d           0.022  -0.659   1.123  0.00  0.00    -0.164 NA
ATOM     26  C2  <0> d           0.002  -0.004   0.002  0.00  0.00     0.061 C 
ATOM     27  C1  <0> d          -0.018   1.503   0.010  0.00  0.00     0.073 C 
BRANCH  26  28
ATOM     28  C14 <0> d          -0.000  -0.734  -1.278  0.00  0.00    -0.007 A 
ATOM     29  C18 <0> d           0.019  -2.135  -1.309  0.00  0.00     0.032 A 
ATOM     30  C17 <0> d           0.010  -2.777  -2.529  0.00  0.00     0.117 A 
ATOM     31  N8  <0> d          -0.004  -2.090  -3.656  0.00  0.00    -0.273 NA
ATOM     32  C16 <0> d          -0.017  -0.770  -3.673  0.00  0.00     0.117 A 
ATOM     33  C15 <0> d          -0.015  -0.047  -2.500  0.00  0.00     0.032 A 
ENDBRANCH  26  28
ENDBRANCH  23  25
ENDBRANCH   1  23
TORSDOF 8
