REMARK  2 active torsions:
REMARK  status: ('A' for Active; 'I' for Inactive)
REMARK    1  A    between atoms: C4_4  and  C7_7 
REMARK    2  A    between atoms: C9_9  and  C13_17 
ROOT
ATOM      1  C7  <0> d           3.699  -0.689  -0.037  0.00  0.00     0.096 A 
ATOM      2  C8  <0> d           3.839  -2.004   0.043  0.00  0.00     0.006 A 
ATOM      3  C9  <0> d           2.887  -3.123   0.362  0.00  0.00     0.065 C 
ATOM      4  C10 <0> d           3.396  -3.751   1.670  0.00  0.00     0.116 C 
ATOM      5  C11 <0> d           4.888  -3.764   1.740  0.00  0.00     0.220 C 
ATOM      6  O1  <0> d           5.376  -4.534   2.541  0.00  0.00    -0.274 OA
ATOM      7  N1  <0> d           5.751  -3.034   1.030  0.00  0.00    -0.333 N 
ATOM      8  C12 <0> d           5.334  -2.246  -0.122  0.00  0.00     0.264 A 
ATOM      9  N2  <0> d           5.877  -0.890  -0.154  0.00  0.00    -0.161 NA
ATOM     10  N3  <0> d           4.925  -0.097  -0.144  0.00  0.00    -0.152 NA
ATOM     11  H10 <0> d           6.685  -3.029   1.290  0.00  0.00     0.165 HD
ENDROOT
BRANCH   3  12
ATOM     12  C13 <0> d           2.897  -4.144  -0.746  0.00  0.00    -0.017 A 
ATOM     13  C18 <0> d           1.700  -4.433  -1.455  0.00  0.00     0.103 A 
ATOM     14  C17 <0> d           1.750  -5.424  -2.524  0.00  0.00     0.097 A 
ATOM     15  N4  <0> d           0.487  -3.906  -1.284  0.00  0.00    -0.191 NA
ATOM     16  C16 <0> d           2.990  -6.061  -2.798  0.00  0.00     0.035 A 
ATOM     17  N5  <0> d           0.572  -5.608  -3.123  0.00  0.00    -0.191 NA
ATOM     18  C15 <0> d           4.091  -5.741  -2.078  0.00  0.00     0.003 A 
ATOM     19  C14 <0> d           4.045  -4.790  -1.059  0.00  0.00     0.010 A 
ATOM     20  S1  <0> d          -0.455  -4.622  -2.374  0.00  0.00     0.117 SA
ENDBRANCH   3  12
BRANCH   1  21
ATOM     21  C4  <0> d           2.402   0.033  -0.021  0.00  0.00    -0.005 A 
ATOM     22  C3  <0> d           2.236   1.154   0.790  0.00  0.00     0.014 A 
ATOM     23  C2  <0> d           1.028   1.821   0.801  0.00  0.00     0.001 A 
ATOM     24  C1  <0> d          -0.016   1.380   0.010  0.00  0.00     0.000 A 
ATOM     25  C6  <0> d           0.143   0.267  -0.797  0.00  0.00     0.001 A 
ATOM     26  C5  <0> d           1.346  -0.408  -0.816  0.00  0.00     0.014 A 
ENDBRANCH   1  21
TORSDOF 2
