REMARK  5 active torsions:
REMARK  status: ('A' for Active; 'I' for Inactive)
REMARK    1  A    between atoms: C5_6  and  C6_7 
REMARK    2  A    between atoms: C6_7  and  N2_8 
REMARK       I    between atoms: N3_11  and  C11_14 
REMARK       I    between atoms: C11_14  and  N4_16 
REMARK    3  A    between atoms: N4_16  and  C12_17 
REMARK    4  A    between atoms: C12_17  and  C13_18 
REMARK    5  A    between atoms: C13_18  and  C14_19 
ROOT
ATOM      1  N2  <0> d          -1.713  -1.038  -1.372  0.00  0.00     0.095 N 
ATOM      2  C7  <0> d          -2.067   0.216  -2.050  0.00  0.00     0.292 C 
ATOM      3  C8  <0> d          -2.336  -0.067  -3.532  0.00  0.00     0.158 C 
ATOM      4  N3  <0> d          -3.344  -1.133  -3.629  0.00  0.00    -0.331 N 
ATOM      5  C9  <0> d          -3.125  -2.370  -2.864  0.00  0.00     0.158 C 
ATOM      6  C10 <0> d          -2.825  -1.996  -1.409  0.00  0.00     0.292 C 
ATOM      7  C11 <0> d          -4.441  -0.981  -4.397  0.00  0.00     0.318 C 
ATOM      8  O1  <0> d          -4.654   0.082  -4.947  0.00  0.00    -0.247 OA
ATOM      9  N4  <0> d          -5.300  -2.007  -4.557  0.00  0.00    -0.343 N 
ATOM     10  H15 <0> d          -5.169  -2.830  -4.062  0.00  0.00     0.164 HD
ENDROOT
BRANCH   9  11
ATOM     11  C12 <0> d          -6.432  -1.877  -5.478  0.00  0.00     0.131 C 
BRANCH  11  12
ATOM     12  C13 <0> d          -7.245  -3.174  -5.472  0.00  0.00     0.086 C 
BRANCH  12  13
ATOM     13  C14 <0> d          -8.409  -3.041  -6.419  0.00  0.00     0.076 A 
ATOM     14  S1  <0> d          -9.962  -2.478  -6.095  0.00  0.00    -0.085 SA
ATOM     15  C16 <0> d         -10.638  -2.664  -7.737  0.00  0.00     0.070 A 
ATOM     16  C15 <0> d          -9.562  -3.167  -8.395  0.00  0.00     0.124 A 
ATOM     17  N5  <0> d          -8.460  -3.341  -7.693  0.00  0.00    -0.258 NA
ENDBRANCH  12  13
ENDBRANCH  11  12
ENDBRANCH   9  11
BRANCH   1  18
ATOM     18  C6  <0> d          -1.281  -0.785   0.009  0.00  0.00     0.311 C 
BRANCH  18  19
ATOM     19  C5  <0> d           0.005   0.001  -0.002  0.00  0.00    -0.027 A 
ATOM     20  C1  <0> d          -0.011   1.387   0.001  0.00  0.00     0.028 A 
ATOM     21  C2  <0> d           1.188   2.074  -0.009  0.00  0.00     0.116 A 
ATOM     22  N1  <0> d           2.337   1.427  -0.022  0.00  0.00    -0.273 NA
ATOM     23  C3  <0> d           2.390   0.109  -0.025  0.00  0.00     0.116 A 
ATOM     24  C4  <0> d           1.232  -0.645  -0.015  0.00  0.00     0.028 A 
ENDBRANCH  18  19
ENDBRANCH   1  18
TORSDOF 5
