REMARK  4 active torsions:
REMARK  status: ('A' for Active; 'I' for Inactive)
REMARK    1  A    between atoms: N1_19  and  N2_22 
REMARK    2  A    between atoms: C19_23  and  C20_24 
REMARK    3  A    between atoms: C23_27  and  O4_31 
REMARK    4  A    between atoms: C24_28  and  O3_30 
ROOT
ATOM      1  C1  <0> d          -1.726 -12.565  -2.121  0.00  0.00     0.001 A 
ATOM      2  C2  <0> d          -1.853 -12.622  -0.746  0.00  0.00     0.001 A 
ATOM      3  C3  <0> d          -1.175 -11.714   0.060  0.00  0.00     0.008 A 
ATOM      4  C4  <0> d          -0.386 -10.778  -0.535  0.00  0.00    -0.042 A 
ATOM      5  C5  <0> d          -0.213 -10.744  -1.919  0.00  0.00    -0.042 A 
ATOM      6  C6  <0> d          -0.894 -11.623  -2.713  0.00  0.00     0.008 A 
ATOM      7  C7  <0> d           0.760  -9.695  -2.415  0.00  0.00     0.067 C 
ATOM      8  C8  <0> d           2.023 -10.032  -1.615  0.00  0.00    -0.042 A 
ATOM      9  C9  <0> d           3.241 -10.325  -2.134  0.00  0.00     0.008 A 
ATOM     10  C10 <0> d           4.319 -10.447  -1.263  0.00  0.00     0.001 A 
ATOM     11  C11 <0> d           4.133 -10.274   0.097  0.00  0.00     0.001 A 
ATOM     12  C12 <0> d           2.876 -10.006   0.617  0.00  0.00     0.008 A 
ATOM     13  C13 <0> d           1.809  -9.906  -0.238  0.00  0.00    -0.042 A 
ATOM     14  C14 <0> d           0.377  -9.673   0.221  0.00  0.00     0.067 C 
ATOM     15  C15 <0> d          -0.211  -8.450  -0.470  0.00  0.00     0.107 C 
ATOM     16  C16 <0> d           0.462  -8.366  -1.869  0.00  0.00     0.107 C 
ATOM     17  C17 <0> d           0.073  -7.043  -2.324  0.00  0.00     0.253 C 
ATOM     18  O1  <0> d          -0.189  -6.684  -3.452  0.00  0.00    -0.271 OA
ATOM     19  N1  <0> d           0.075  -6.293  -1.167  0.00  0.00    -0.167 N 
ATOM     20  C18 <0> d           0.102  -7.056  -0.029  0.00  0.00     0.253 C 
ATOM     21  O2  <0> d           0.330  -6.679   1.100  0.00  0.00    -0.271 OA
ENDROOT
BRANCH  19  22
ATOM     22  N2  <0> d           0.056  -4.892  -1.155  0.00  0.00    -0.174 NA
ATOM     23  C19 <0> d           0.059  -4.252  -0.026  0.00  0.00     0.150 C 
BRANCH  23  24
ATOM     24  C20 <0> d           0.039  -2.778  -0.014  0.00  0.00    -0.014 A 
ATOM     25  C25 <0> d           0.042  -2.087   1.200  0.00  0.00     0.052 A 
ATOM     26  C24 <0> d           0.023  -0.705   1.206  0.00  0.00     0.099 A 
ATOM     27  C23 <0> d           0.002  -0.004   0.002  0.00  0.00     0.098 A 
ATOM     28  C22 <0> d          -0.006  -0.690  -1.204  0.00  0.00     0.040 A 
ATOM     29  C21 <0> d           0.018  -2.068  -1.218  0.00  0.00     0.016 A 
BRANCH  26  30
ATOM     30  O3  <0> d           0.025  -0.030   2.386  0.00  0.00    -0.358 OA
ATOM     31  H17 <0> d          -0.857   0.154   2.736  0.00  0.00     0.217 HD
ENDBRANCH  26  30
BRANCH  27  32
ATOM     32  O4  <0> d          -0.016   1.355   0.009  0.00  0.00    -0.358 OA
ATOM     33  H18 <0> d           0.862   1.760   0.003  0.00  0.00     0.217 HD
ENDBRANCH  27  32
ENDBRANCH  23  24
ENDBRANCH  19  22
TORSDOF 4
