REMARK  6 active torsions:
REMARK  status: ('A' for Active; 'I' for Inactive)
REMARK    1  A    between atoms: C2_2  and  O1_4 
REMARK    2  A    between atoms: O1_4  and  C4_5 
REMARK    3  A    between atoms: C8_9  and  C10_11 
REMARK    4  A    between atoms: C11_12  and  C12_13 
REMARK       I    between atoms: C12_13  and  N1_15 
REMARK    5  A    between atoms: N1_15  and  C13_16 
REMARK    6  A    between atoms: C13_16  and  C14_17 
ROOT
ATOM      1  C12 <0> d          -7.383  -1.965  -3.807  0.00  0.00     0.241 C 
ATOM      2  O2  <0> d          -8.000  -2.192  -2.783  0.00  0.00    -0.269 OA
ATOM      3  N1  <0> d          -7.998  -2.069  -5.002  0.00  0.00    -0.350 N 
ATOM      4  H14 <0> d          -7.506  -1.887  -5.818  0.00  0.00     0.163 HD
ENDROOT
BRANCH   1   5
ATOM      5  C11 <0> d          -5.973  -1.577  -3.741  0.00  0.00     0.075 C 
ATOM      6  C10 <0> d          -5.357  -1.473  -2.546  0.00  0.00     0.017 C 
BRANCH   6   7
ATOM      7  C8  <0> d          -3.939  -1.084  -2.480  0.00  0.00    -0.033 A 
ATOM      8  C7  <0> d          -3.227  -0.821  -3.654  0.00  0.00     0.011 A 
ATOM      9  C6  <0> d          -1.899  -0.456  -3.587  0.00  0.00     0.004 A 
ATOM     10  C5  <0> d          -1.268  -0.348  -2.362  0.00  0.00     0.037 A 
ATOM     11  C4  <0> d          -1.966  -0.607  -1.189  0.00  0.00     0.070 A 
ATOM     12  C9  <0> d          -3.297  -0.980  -1.243  0.00  0.00     0.048 A 
BRANCH  11  13
ATOM     13  O1  <0> d          -1.339  -0.499   0.012  0.00  0.00    -0.347 OA
BRANCH  13  14
ATOM     14  C2  <0> d           0.064  -0.228  -0.010  0.00  0.00     0.120 C 
ATOM     15  C1  <0> d           0.290   1.280  -0.135  0.00  0.00     0.040 C 
ATOM     16  C3  <0> d           0.703  -0.734   1.285  0.00  0.00     0.040 C 
ENDBRANCH  13  14
ENDBRANCH  11  13
ENDBRANCH   6   7
ENDBRANCH   1   5
BRANCH   3  17
ATOM     17  C13 <0> d          -9.409  -2.456  -5.068  0.00  0.00     0.203 C 
BRANCH  17  18
ATOM     18  C14 <0> d          -9.852  -2.499  -6.508  0.00  0.00     0.146 A 
ATOM     19  N4  <0> d         -11.111  -2.824  -6.947  0.00  0.00    -0.312 N 
ATOM     20  C15 <0> d         -11.124  -2.749  -8.293  0.00  0.00     0.195 A 
ATOM     21  C16 <0> d         -12.249  -3.187  -6.098  0.00  0.00     0.160 C 
ATOM     22  N3  <0> d          -9.884  -2.391  -8.689  0.00  0.00    -0.251 N 
ATOM     23  S1  <0> d         -12.463  -3.058  -9.314  0.00  0.00    -0.039 SA
ATOM     24  N2  <0> d          -9.105  -2.241  -7.533  0.00  0.00    -0.157 NA
ATOM     25  H20 <0> d          -9.587  -2.260  -9.603  0.00  0.00     0.191 HD
ENDBRANCH  17  18
ENDBRANCH   3  17
TORSDOF 6
