REMARK  4 active torsions:
REMARK  status: ('A' for Active; 'I' for Inactive)
REMARK    1  A    between atoms: C3_3  and  N4_15 
REMARK    2  A    between atoms: N1_6  and  C6_8 
REMARK    3  A    between atoms: C6_8  and  C7_9 
REMARK    4  A    between atoms: C7_9  and  N2_10 
ROOT
ATOM      1  C1  <0> d          -0.016   1.348   0.009  0.00  0.00     0.020 A 
ATOM      2  C2  <0> d           1.188   2.067   0.002  0.00  0.00     0.036 A 
ATOM      3  C3  <0> d           2.373   1.384  -0.013  0.00  0.00     0.094 A 
ATOM      4  C4  <0> d           2.355  -0.028  -0.021  0.00  0.00     0.273 A 
ATOM      5  O1  <0> d           3.404  -0.653  -0.034  0.00  0.00    -0.266 OA
ATOM      6  N1  <0> d           1.179  -0.685  -0.013  0.00  0.00    -0.321 N 
ATOM      7  C5  <0> d           0.002  -0.004   0.002  0.00  0.00     0.094 A 
ENDROOT
BRANCH   6   8
ATOM      8  C6  <0> d           1.169  -2.150  -0.021  0.00  0.00     0.153 C 
BRANCH   8   9
ATOM      9  C7  <0> d           1.179  -2.668   1.418  0.00  0.00     0.170 C 
BRANCH   9  10
ATOM     10  N2  <0> d           1.168  -4.133   1.410  0.00  0.00    -0.280 N 
ATOM     11  N3  <0> d           0.227  -4.947   0.765  0.00  0.00    -0.185 NA
ATOM     12  C10 <0> d           0.551  -6.196   0.981  0.00  0.00     0.140 A 
ATOM     13  C9  <0> d           1.700  -6.218   1.778  0.00  0.00     0.040 A 
ATOM     14  C8  <0> d           2.059  -4.937   2.027  0.00  0.00     0.113 A 
ENDBRANCH   9  10
ENDBRANCH   8   9
ENDBRANCH   6   8
BRANCH   3  15
ATOM     15  N4  <0> d           3.590   2.077  -0.022  0.00  0.00    -0.395 N 
ATOM     16  H11 <0> d           3.596   3.047  -0.017  0.00  0.00     0.156 HD
ATOM     17  H12 <0> d           4.427   1.587  -0.032  0.00  0.00     0.156 HD
ENDBRANCH   3  15
TORSDOF 4
