REMARK  3 active torsions:
REMARK  status: ('A' for Active; 'I' for Inactive)
REMARK    1  A    between atoms: C6_6  and  N1_8 
REMARK    2  A    between atoms: C20_26  and  C21_27 
REMARK    3  A    between atoms: C21_27  and  O4_29 
ROOT
ATOM      1  N1  <0> d           0.050  -2.798   2.395  0.00  0.00    -0.252 N 
ATOM      2  C8  <0> d          -0.025  -4.133   2.452  0.00  0.00     0.238 A 
ATOM      3  O1  <0> d          -0.115  -4.871   1.494  0.00  0.00    -0.272 OA
ATOM      4  C9  <0> d           0.019  -4.578   3.896  0.00  0.00     0.131 A 
ATOM      5  C10 <0> d           0.125  -3.240   4.681  0.00  0.00     0.147 A 
ATOM      6  C11 <0> d           0.146  -2.196   3.587  0.00  0.00     0.239 A 
ATOM      7  O2  <0> d           0.233  -1.000   3.761  0.00  0.00    -0.272 OA
ATOM      8  C12 <0> d          -1.184  -3.155   5.475  0.00  0.00     0.279 A 
ATOM      9  C13 <0> d          -0.999  -3.614   6.893  0.00  0.00     0.017 A 
ATOM     10  C14 <0> d          -0.584  -4.799   7.460  0.00  0.00     0.012 A 
ATOM     11  C15 <0> d          -0.514  -4.921   8.836  0.00  0.00     0.001 A 
ATOM     12  C16 <0> d          -0.862  -3.851   9.640  0.00  0.00     0.002 A 
ATOM     13  C17 <0> d          -1.278  -2.663   9.078  0.00  0.00     0.030 A 
ATOM     14  C18 <0> d          -1.352  -2.531   7.693  0.00  0.00     0.044 A 
ATOM     15  N2  <0> d          -1.739  -1.450   6.898  0.00  0.00    -0.324 N 
ATOM     16  C19 <0> d          -1.670  -1.736   5.583  0.00  0.00     0.267 A 
ATOM     17  O3  <0> d          -1.946  -0.993   4.665  0.00  0.00    -0.270 OA
ATOM     18  N3  <0> d          -2.150  -4.004   4.753  0.00  0.00     0.116 N 
ATOM     19  C20 <0> d          -1.347  -5.178   4.288  0.00  0.00     0.264 C 
ATOM     20  H15 <0> d          -2.025  -0.593   7.251  0.00  0.00     0.169 HD
ATOM     21  H16 <0> d          -2.901  -4.294   5.361  0.00  0.00     0.318 HD
ENDROOT
BRANCH  19  22
ATOM     22  C21 <0> d          -1.994  -5.860   3.081  0.00  0.00     0.148 C 
ATOM     23  C22 <0> d          -3.346  -6.448   3.492  0.00  0.00     0.041 C 
BRANCH  22  24
ATOM     24  O4  <0> d          -1.143  -6.907   2.612  0.00  0.00    -0.394 OA
ATOM     25  H20 <0> d          -0.967  -7.595   3.269  0.00  0.00     0.210 HD
ENDBRANCH  22  24
ENDBRANCH  19  22
BRANCH   1  26
ATOM     26  C6  <0> d           0.035  -2.088   1.186  0.00  0.00     0.046 A 
ATOM     27  C5  <0> d          -1.113  -2.066   0.406  0.00  0.00     0.037 A 
ATOM     28  C4  <0> d          -1.124  -1.366  -0.784  0.00  0.00    -0.059 A 
ATOM     29  C3  <0> d           0.007  -0.687  -1.199  0.00  0.00     0.013 A 
ATOM     30  C23 <0> d          -2.370  -1.341  -1.631  0.00  0.00     0.048 C 
ATOM     31  C2  <0> d           1.152  -0.707  -0.424  0.00  0.00    -0.059 A 
ATOM     32  C1  <0> d           2.382   0.035  -0.880  0.00  0.00     0.048 C 
ATOM     33  C7  <0> d           1.171  -1.411   0.764  0.00  0.00     0.037 A 
ENDBRANCH   1  26
TORSDOF 3
