REMARK  7 active torsions:
REMARK  status: ('A' for Active; 'I' for Inactive)
REMARK    1  A    between atoms: N1_5  and  C5_8 
REMARK    2  A    between atoms: C5_8  and  C6_9 
REMARK    3  A    between atoms: C6_9  and  N3_10 
REMARK    4  A    between atoms: N3_10  and  S1_11 
REMARK    5  A    between atoms: S1_11  and  C7_14 
REMARK    6  A    between atoms: C7_14  and  C8_15 
REMARK    7  A    between atoms: C8_15  and  N4_16 
ROOT
ATOM      1  S1  <0> d           6.079  -2.076   2.761  0.00  0.00     0.228 S 
ATOM      2  O2  <0> d           7.186  -2.881   2.379  0.00  0.00    -0.206 OA
ATOM      3  O3  <0> d           6.274  -0.742   3.210  0.00  0.00    -0.206 OA
ENDROOT
BRANCH   1   4
ATOM      4  N3  <0> d           5.170  -1.929   1.385  0.00  0.00    -0.318 N 
ATOM      5  H8  <0> d           5.450  -2.371   0.568  0.00  0.00     0.172 HD
BRANCH   4   6
ATOM      6  C6  <0> d           3.941  -1.132   1.401  0.00  0.00     0.154 C 
BRANCH   6   7
ATOM      7  C5  <0> d           3.499  -0.847  -0.036  0.00  0.00     0.175 C 
BRANCH   7   8
ATOM      8  N1  <0> d           2.270  -0.050  -0.020  0.00  0.00    -0.234 N 
ATOM      9  C3  <0> d           2.359   1.294  -0.013  0.00  0.00     0.263 A 
ATOM     10  C2  <0> d           1.177   2.065   0.002  0.00  0.00     0.077 A 
ATOM     11  O1  <0> d           3.451   1.839  -0.021  0.00  0.00    -0.267 OA
ATOM     12  C1  <0> d          -0.017   1.401   0.010  0.00  0.00     0.026 A 
ATOM     13  C4  <0> d           0.002  -0.004   0.002  0.00  0.00     0.139 A 
ATOM     14  N2  <0> d           1.135  -0.650  -0.013  0.00  0.00    -0.182 NA
ENDBRANCH   7   8
ENDBRANCH   6   7
ENDBRANCH   4   6
ENDBRANCH   1   4
BRANCH   1  15
ATOM     15  C7  <0> d           5.022  -2.979   3.925  0.00  0.00     0.183 C 
BRANCH  15  16
ATOM     16  C8  <0> d           5.768  -3.174   5.246  0.00  0.00     0.151 C 
BRANCH  16  17
ATOM     17  N4  <0> d           4.914  -3.904   6.187  0.00  0.00    -0.287 N 
ATOM     18  C13 <0> d           4.973  -5.244   6.204  0.00  0.00     0.226 C 
ATOM     19  C12 <0> d           4.116  -6.052   7.143  0.00  0.00     0.104 C 
ATOM     20  O5  <0> d           5.734  -5.816   5.453  0.00  0.00    -0.273 OA
ATOM     21  C11 <0> d           3.823  -5.225   8.399  0.00  0.00     0.019 C 
ATOM     22  C10 <0> d           3.188  -3.897   7.972  0.00  0.00     0.104 C 
ATOM     23  C9  <0> d           4.100  -3.206   6.992  0.00  0.00     0.226 C 
ATOM     24  O4  <0> d           4.097  -1.995   6.931  0.00  0.00    -0.273 OA
ENDBRANCH  16  17
ENDBRANCH  15  16
ENDBRANCH   1  15
TORSDOF 7
