REMARK  9 active torsions:
REMARK  status: ('A' for Active; 'I' for Inactive)
REMARK    1  A    between atoms: C4_4  and  C7_7 
REMARK    2  A    between atoms: C9_9  and  N1_10 
REMARK    3  A    between atoms: N2_11  and  C24_29 
REMARK    4  A    between atoms: N4_15  and  C19_23 
REMARK    5  A    between atoms: C12_16  and  C13_17 
REMARK    6  A    between atoms: C19_23  and  C20_24 
REMARK    7  A    between atoms: C24_29  and  C25_30 
REMARK    8  A    between atoms: C25_30  and  C26_31 
REMARK    9  A    between atoms: C26_31  and  N5_32 
ROOT
ATOM      1  C7  <0> d           3.696  -0.686  -0.037  0.00  0.00     0.020 A 
ATOM      2  C8  <0> d           4.698  -0.669  -1.108  0.00  0.00     0.067 A 
ATOM      3  C9  <0> d           4.795  -0.045  -2.361  0.00  0.00     0.117 A 
ATOM      4  N2  <0> d           5.885  -0.262  -3.092  0.00  0.00    -0.327 N 
ATOM      5  C10 <0> d           6.854  -1.045  -2.653  0.00  0.00     0.213 A 
ATOM      6  N3  <0> d           6.804  -1.650  -1.486  0.00  0.00    -0.225 NA
ATOM      7  C11 <0> d           5.753  -1.494  -0.681  0.00  0.00     0.147 A 
ATOM      8  N4  <0> d           5.429  -1.983   0.557  0.00  0.00    -0.323 N 
ATOM      9  C12 <0> d           4.203  -1.501   0.954  0.00  0.00     0.059 A 
ENDROOT
BRANCH   4  10
ATOM     10  C24 <0> d           6.013   0.377  -4.404  0.00  0.00     0.133 C 
BRANCH  10  11
ATOM     11  C25 <0> d           6.582   1.786  -4.232  0.00  0.00     0.040 C 
BRANCH  11  12
ATOM     12  C26 <0> d           6.715   2.453  -5.603  0.00  0.00     0.131 C 
BRANCH  12  13
ATOM     13  N5  <0> d           7.261   3.803  -5.438  0.00  0.00    -0.352 N 
ATOM     14  C29 <0> d           8.567   4.146  -5.443  0.00  0.00     0.182 A 
ATOM     15  N6  <0> d           8.662   5.436  -5.271  0.00  0.00    -0.361 N 
ATOM     16  C28 <0> d           7.432   5.956  -5.144  0.00  0.00     0.106 A 
ATOM     17  H28 <0> d           9.491   5.938  -5.237  0.00  0.00     0.166 HD
ATOM     18  C27 <0> d           6.542   4.952  -5.245  0.00  0.00     0.108 A 
ENDBRANCH  12  13
ENDBRANCH  11  12
ENDBRANCH  10  11
ENDBRANCH   4  10
BRANCH   3  19
ATOM     19  N1  <0> d           3.783   0.776  -2.824  0.00  0.00    -0.384 N 
ATOM     20  H6  <0> d           2.994   0.927  -2.281  0.00  0.00     0.157 HD
ATOM     21  H27 <0> d           3.863   1.202  -3.692  0.00  0.00     0.157 HD
ENDBRANCH   3  19
BRANCH   1  22
ATOM     22  C4  <0> d           2.403   0.034  -0.021  0.00  0.00    -0.023 A 
ATOM     23  C3  <0> d           2.377   1.429  -0.013  0.00  0.00     0.012 A 
ATOM     24  C2  <0> d           1.169   2.093   0.002  0.00  0.00     0.001 A 
ATOM     25  C1  <0> d          -0.017   1.379   0.010  0.00  0.00     0.000 A 
ATOM     26  C6  <0> d           0.002  -0.004   0.002  0.00  0.00     0.001 A 
ATOM     27  C5  <0> d           1.204  -0.680  -0.013  0.00  0.00     0.012 A 
ENDBRANCH   1  22
BRANCH   9  28
ATOM     28  C13 <0> d           3.535  -1.809   2.233  0.00  0.00    -0.008 A 
ATOM     29  C18 <0> d           3.498  -3.123   2.707  0.00  0.00     0.014 A 
ATOM     30  C17 <0> d           2.876  -3.403   3.906  0.00  0.00     0.001 A 
ATOM     31  C16 <0> d           2.280  -2.388   4.634  0.00  0.00     0.000 A 
ATOM     32  C15 <0> d           2.309  -1.085   4.168  0.00  0.00     0.001 A 
ATOM     33  C14 <0> d           2.932  -0.790   2.974  0.00  0.00     0.014 A 
ENDBRANCH   9  28
BRANCH   8  34
ATOM     34  C19 <0> d           6.270  -2.886   1.347  0.00  0.00     0.196 C 
BRANCH  34  35
ATOM     35  C20 <0> d           7.189  -2.076   2.226  0.00  0.00     0.070 A 
ATOM     36  O1  <0> d           8.418  -1.648   1.893  0.00  0.00    -0.325 OA
ATOM     37  C23 <0> d           8.942  -0.954   2.917  0.00  0.00     0.142 A 
ATOM     38  C22 <0> d           8.049  -0.941   3.923  0.00  0.00     0.027 A 
ATOM     39  C21 <0> d           6.919  -1.665   3.478  0.00  0.00     0.036 A 
ENDBRANCH  34  35
ENDBRANCH   8  34
TORSDOF 9
