REMARK  6 active torsions:
REMARK  status: ('A' for Active; 'I' for Inactive)
REMARK    1  A    between atoms: C3_3  and  C7_10 
REMARK    2  A    between atoms: C4_4  and  O1_8 
REMARK    3  A    between atoms: C7_10  and  N3_11 
REMARK    4  A    between atoms: N3_11  and  C8_12 
REMARK    5  A    between atoms: C8_12  and  C9_13 
REMARK    6  A    between atoms: C12_16  and  S1_19 
ROOT
ATOM      1  N3  <0> d           1.133  -0.073  -3.088  0.00  0.00     0.091 N 
ATOM      2  H12 <0> d           1.640   0.582  -2.511  0.00  0.00     0.316 HD
ENDROOT
BRANCH   1   3
ATOM      3  C7  <0> d          -0.204  -0.332  -2.538  0.00  0.00     0.315 C 
BRANCH   3   4
ATOM      4  C3  <0> d          -0.078  -0.817  -1.117  0.00  0.00     0.048 A 
ATOM      5  C2  <0> d          -0.065  -0.016   0.029  0.00  0.00     0.063 A 
ATOM      6  C1  <0> d          -0.174   1.487   0.056  0.00  0.00     0.073 C 
ATOM      7  N2  <0> d           0.064  -0.795   1.072  0.00  0.00    -0.175 NA
ATOM      8  N1  <0> d           0.128  -2.121   0.627  0.00  0.00    -0.252 N 
ATOM      9  C4  <0> d           0.042  -2.112  -0.721  0.00  0.00     0.170 A 
ATOM     10  C5  <0> d           0.269  -3.308   1.474  0.00  0.00     0.182 C 
BRANCH   9  11
ATOM     11  O1  <0> d           0.070  -3.200  -1.534  0.00  0.00    -0.339 OA
ATOM     12  C6  <0> d           1.357  -3.694  -1.911  0.00  0.00     0.211 C 
ENDBRANCH   9  11
ENDBRANCH   3   4
ENDBRANCH   1   3
BRANCH   1  13
ATOM     13  C8  <0> d           1.049   0.403  -4.475  0.00  0.00     0.308 C 
BRANCH  13  14
ATOM     14  C9  <0> d           2.437   0.658  -5.003  0.00  0.00    -0.030 A 
ATOM     15  C14 <0> d           3.132  -0.355  -5.637  0.00  0.00     0.010 A 
ATOM     16  C13 <0> d           4.404  -0.121  -6.126  0.00  0.00     0.024 A 
ATOM     17  C12 <0> d           4.984   1.125  -5.973  0.00  0.00     0.058 A 
ATOM     18  C11 <0> d           4.291   2.136  -5.334  0.00  0.00     0.024 A 
ATOM     19  C10 <0> d           3.018   1.903  -4.850  0.00  0.00     0.010 A 
BRANCH  17  20
ATOM     20  S1  <0> d           6.607   1.423  -6.592  0.00  0.00     0.171 S 
ATOM     21  O2  <0> d           6.765   0.493  -7.655  0.00  0.00    -0.223 OA
ATOM     22  O3  <0> d           6.649   2.821  -6.839  0.00  0.00    -0.223 OA
ATOM     23  C15 <0> d           7.714   0.997  -5.220  0.00  0.00     0.167 C 
ENDBRANCH  17  20
ENDBRANCH  13  14
ENDBRANCH   1  13
TORSDOF 6
