REMARK  3 active torsions:
REMARK  status: ('A' for Active; 'I' for Inactive)
REMARK    1  A    between atoms: C2_2  and  C3_3 
REMARK    2  A    between atoms: C2_2  and  N5_20 
REMARK       I    between atoms: C3_3  and  N1_5 
REMARK       I    between atoms: N5_20  and  C14_21 
REMARK    3  A    between atoms: C14_21  and  C15_23 
ROOT
ATOM      1  C3  <0> d           0.836  -0.462   1.171  0.00  0.00     0.242 C 
ATOM      2  O1  <0> d           0.368  -1.229   1.986  0.00  0.00    -0.271 OA
ATOM      3  N1  <0> d           2.100  -0.017   1.312  0.00  0.00    -0.350 N 
ATOM      4  C4  <0> d           2.642   1.000   0.401  0.00  0.00     0.129 C 
ATOM      5  C5  <0> d           3.196   2.162   1.233  0.00  0.00     0.068 C 
ATOM      6  C6  <0> d           4.204   1.623   2.248  0.00  0.00     0.204 C 
ATOM      7  C7  <0> d           3.513   0.637   3.191  0.00  0.00     0.068 C 
ATOM      8  C8  <0> d           2.962  -0.537   2.383  0.00  0.00     0.129 C 
ATOM      9  C9  <0> d           4.785   2.763   3.042  0.00  0.00     0.072 A 
ATOM     10  C10 <0> d           6.102   2.887   3.322  0.00  0.00     0.037 A 
ATOM     11  N2  <0> d           6.270   4.002   4.033  0.00  0.00    -0.354 N 
ATOM     12  C11 <0> d           5.108   4.577   4.208  0.00  0.00     0.181 A 
ATOM     13  N3  <0> d           4.156   3.829   3.602  0.00  0.00    -0.352 N 
ATOM     14  H2  <0> d           3.205   4.019   3.573  0.00  0.00     0.166 HD
ATOM     15  C12 <0> d           7.137   1.885   2.872  0.00  0.00     0.089 C 
ATOM     16  C13 <0> d           6.402   0.604   2.453  0.00  0.00     0.277 C 
ATOM     17  N4  <0> d           5.300   0.942   1.540  0.00  0.00     0.099 N 
ATOM     18  H19 <0> d           4.964   0.121   1.059  0.00  0.00     0.317 HD
ATOM     19  H25 <0> d           7.118   4.334   4.367  0.00  0.00     0.166 HD
ENDROOT
BRANCH   1  20
ATOM     20  C2  <0> d           0.002  -0.004   0.002  0.00  0.00     0.173 C 
ATOM     21  C1  <0> d          -0.692   1.313   0.354  0.00  0.00     0.042 C 
BRANCH  20  22
ATOM     22  N5  <0> d          -1.007  -1.021  -0.305  0.00  0.00    -0.344 N 
ATOM     23  C14 <0> d          -1.519  -1.107  -1.549  0.00  0.00     0.252 C 
ATOM     24  O2  <0> d          -1.144  -0.342  -2.416  0.00  0.00    -0.268 OA
ATOM     25  H20 <0> d          -1.307  -1.631   0.386  0.00  0.00     0.163 HD
BRANCH  23  26
ATOM     26  C15 <0> d          -2.538  -2.133  -1.859  0.00  0.00     0.033 A 
ATOM     27  C20 <0> d          -3.070  -2.225  -3.146  0.00  0.00     0.036 A 
ATOM     28  C19 <0> d          -4.016  -3.189  -3.431  0.00  0.00     0.011 A 
ATOM     29  C18 <0> d          -4.446  -4.055  -2.440  0.00  0.00     0.019 A 
ATOM     30 Br1  <0> d          -4.732  -3.323  -5.176  0.00  0.00    -0.051 Br
ATOM     31  C17 <0> d          -3.926  -3.964  -1.161  0.00  0.00     0.002 A 
ATOM     32  C16 <0> d          -2.976  -3.009  -0.865  0.00  0.00     0.017 A 
ENDBRANCH  23  26
ENDBRANCH  20  22
ENDBRANCH   1  20
TORSDOF 3
