REMARK  7 active torsions:
REMARK  status: ('A' for Active; 'I' for Inactive)
REMARK    1  A    between atoms: C2_2  and  C3_3 
REMARK    2  A    between atoms: C2_2  and  O4_17 
REMARK    3  A    between atoms: C6_6  and  S1_9 
REMARK    4  A    between atoms: S1_9  and  N1_12 
REMARK    5  A    between atoms: N1_12  and  C10_14 
REMARK    6  A    between atoms: C10_14  and  C11_15 
REMARK    7  A    between atoms: C11_15  and  O3_16 
ROOT
ATOM      1  C3  <0> d           0.731  -0.503   1.223  0.00  0.00    -0.030 A 
ATOM      2  C4  <0> d           0.053  -0.656   2.418  0.00  0.00     0.011 A 
ATOM      3  C5  <0> d           0.722  -1.114   3.538  0.00  0.00     0.026 A 
ATOM      4  C6  <0> d           2.068  -1.420   3.463  0.00  0.00     0.079 A 
ATOM      5  C7  <0> d           2.745  -1.267   2.267  0.00  0.00     0.026 A 
ATOM      6  C8  <0> d           2.076  -0.813   1.146  0.00  0.00     0.011 A 
ENDROOT
BRANCH   4   7
ATOM      7  S1  <0> d           2.920  -2.002   4.890  0.00  0.00     0.260 S 
ATOM      8  O1  <0> d           4.295  -1.698   4.695  0.00  0.00    -0.200 OA
ATOM      9  O2  <0> d           2.190  -1.538   6.017  0.00  0.00    -0.200 OA
BRANCH   7  10
ATOM     10  N1  <0> d           2.798  -3.654   4.894  0.00  0.00    -0.309 N 
ATOM     11  C9  <0> d           3.816  -4.465   4.222  0.00  0.00     0.163 C 
BRANCH  10  12
ATOM     12  C10 <0> d           1.671  -4.303   5.569  0.00  0.00     0.160 C 
BRANCH  12  13
ATOM     13  C11 <0> d           0.563  -4.588   4.553  0.00  0.00     0.184 C 
BRANCH  13  14
ATOM     14  O3  <0> d           1.029  -5.540   3.595  0.00  0.00    -0.399 OA
ATOM     15  H16 <0> d           0.377  -5.768   2.918  0.00  0.00     0.209 HD
ENDBRANCH  13  14
ENDBRANCH  12  13
ENDBRANCH  10  12
ENDBRANCH   7  10
ENDBRANCH   4   7
BRANCH   1  16
ATOM     16  C2  <0> d           0.002  -0.004   0.002  0.00  0.00     0.147 C 
ATOM     17  C1  <0> d          -0.019   1.526   0.010  0.00  0.00     0.044 C 
BRANCH  16  18
ATOM     18  O4  <0> d          -1.339  -0.499   0.012  0.00  0.00    -0.391 OA
ATOM     19  H17 <0> d          -1.868  -0.216  -0.746  0.00  0.00     0.210 HD
ENDBRANCH  16  18
ENDBRANCH   1  16
TORSDOF 7
