REMARK  6 active torsions:
REMARK  status: ('A' for Active; 'I' for Inactive)
REMARK    1  A    between atoms: C5_5  and  C8_8 
REMARK    2  A    between atoms: C5_5  and  N2_11 
REMARK    3  A    between atoms: N2_11  and  S2_12 
REMARK    4  A    between atoms: S2_12  and  C9_15 
REMARK    5  A    between atoms: C9_15  and  C10_16 
REMARK    6  A    between atoms: C10_16  and  O4_18 
ROOT
ATOM      1  C1  <0> d           0.451   2.272  -0.006  0.00  0.00     0.010 C 
ATOM      2  C2  <0> d           0.321   0.756   0.156  0.00  0.00    -0.019 C 
ATOM      3  C3  <0> d           0.659   0.071  -1.169  0.00  0.00     0.007 C 
ATOM      4  C4  <0> d           0.529  -1.445  -1.007  0.00  0.00     0.039 C 
ATOM      5  C5  <0> d           1.494  -1.927   0.077  0.00  0.00     0.092 C 
ATOM      6  C6  <0> d           1.156  -1.241   1.403  0.00  0.00     0.039 C 
ATOM      7  C7  <0> d           1.286   0.274   1.241  0.00  0.00     0.007 C 
ENDROOT
BRANCH   5   8
ATOM      8  C8  <0> d           1.366  -3.420   0.237  0.00  0.00     0.100 C 
ATOM      9  S1  <0> d           0.337  -4.236  -0.675  0.00  0.00    -0.063 SA
ATOM     10  N1  <0> d           2.119  -4.067   1.149  0.00  0.00    -0.391 N 
ATOM     11  H13 <0> d           2.691  -3.566   1.749  0.00  0.00     0.156 HD
ATOM     12  H14 <0> d           2.088  -5.035   1.204  0.00  0.00     0.156 HD
ENDBRANCH   5   8
BRANCH   5  13
ATOM     13  N2  <0> d           2.868  -1.593  -0.308  0.00  0.00    -0.303 N 
ATOM     14  H15 <0> d           3.297  -0.806   0.060  0.00  0.00     0.173 HD
BRANCH  13  15
ATOM     15  S2  <0> d           3.687  -2.562  -1.373  0.00  0.00     0.236 S 
ATOM     16  O1  <0> d           4.945  -1.925  -1.548  0.00  0.00    -0.205 OA
ATOM     17  O2  <0> d           3.606  -3.865  -0.814  0.00  0.00    -0.205 OA
BRANCH  15  18
ATOM     18  C9  <0> d           2.727  -2.480  -2.911  0.00  0.00     0.273 C 
BRANCH  18  19
ATOM     19  C10 <0> d           3.502  -3.139  -4.022  0.00  0.00     0.274 C 
ATOM     20  O3  <0> d           4.590  -3.615  -3.800  0.00  0.00    -0.264 OA
BRANCH  19  21
ATOM     21  O4  <0> d           2.984  -3.197  -5.259  0.00  0.00    -0.326 OA
ATOM     22  C11 <0> d           3.774  -3.836  -6.264  0.00  0.00     0.213 C 
ENDBRANCH  19  21
ENDBRANCH  18  19
ENDBRANCH  15  18
ENDBRANCH  13  15
ENDBRANCH   5  13
TORSDOF 6
