REMARK  3 active torsions:
REMARK  status: ('A' for Active; 'I' for Inactive)
REMARK    1  A    between atoms: N1_2  and  C2_3 
REMARK    2  A    between atoms: C2_3  and  N2_5 
REMARK    3  A    between atoms: N3_8  and  C7_11 
ROOT
ATOM      1  N2  <0> d           0.965   2.031   0.198  0.00  0.00    -0.355 N 
ATOM      2  C3  <0> d          -0.345   1.391   0.380  0.00  0.00     0.145 C 
ATOM      3  C4  <0> d          -0.151  -0.131   0.379  0.00  0.00     0.145 C 
ATOM      4  N3  <0> d           0.936  -0.467   1.308  0.00  0.00    -0.355 N 
ATOM      5  C5  <0> d           2.247   0.173   1.126  0.00  0.00     0.145 C 
ATOM      6  C6  <0> d           2.053   1.695   1.127  0.00  0.00     0.145 C 
ENDROOT
BRANCH   1   7
ATOM      7  C2  <0> d           1.166   2.910  -0.803  0.00  0.00     0.169 C 
ATOM      8  S1  <0> d           2.731   3.544  -1.085  0.00  0.00    -0.041 SA
BRANCH   7   9
ATOM      9  N1  <0> d           0.134   3.290  -1.583  0.00  0.00    -0.371 N 
ATOM     10  C1  <0> d           0.371   4.157  -2.740  0.00  0.00     0.148 C 
ATOM     11  H4  <0> d          -0.765   2.989  -1.378  0.00  0.00     0.161 HD
ENDBRANCH   7   9
ENDBRANCH   1   7
BRANCH   4  12
ATOM     12  C7  <0> d           0.736  -1.346   2.310  0.00  0.00     0.169 C 
ATOM     13  S2  <0> d          -0.829  -1.980   2.592  0.00  0.00    -0.041 SA
ATOM     14  N4  <0> d           1.768  -1.726   3.089  0.00  0.00    -0.371 N 
ATOM     15  C8  <0> d           1.531  -2.593   4.246  0.00  0.00     0.148 C 
ATOM     16  H13 <0> d           2.667  -1.426   2.884  0.00  0.00     0.161 HD
ENDBRANCH   4  12
TORSDOF 3
