REMARK  6 active torsions:
REMARK  status: ('A' for Active; 'I' for Inactive)
REMARK    1  A    between atoms: C2_2  and  C3_3 
REMARK    2  A    between atoms: C3_3  and  N1_4 
REMARK    3  A    between atoms: C9_10  and  N2_13 
REMARK    4  A    between atoms: N2_13  and  C12_14 
REMARK    5  A    between atoms: C12_14  and  C14_16 
REMARK       I    between atoms: C14_16  and  N3_18 
REMARK       I    between atoms: N3_18  and  C15_19 
REMARK       I    between atoms: C15_19  and  N4_21 
REMARK    6  A    between atoms: N4_21  and  C16_22 
ROOT
ATOM      1  N2  <0> d          -5.658  -2.892   1.004  0.00  0.00    -0.377 N 
ATOM      2  H16 <0> d          -5.543  -2.788   0.046  0.00  0.00     0.160 HD
ENDROOT
BRANCH   1   3
ATOM      3  C9  <0> d          -4.544  -2.881   1.847  0.00  0.00     0.037 A 
ATOM      4  C8  <0> d          -4.708  -3.030   3.218  0.00  0.00     0.030 A 
ATOM      5  C7  <0> d          -3.604  -3.019   4.048  0.00  0.00     0.003 A 
ATOM      6  C6  <0> d          -2.338  -2.860   3.517  0.00  0.00     0.009 A 
ATOM      7  C5  <0> d          -2.171  -2.711   2.152  0.00  0.00    -0.022 A 
ATOM      8  C4  <0> d          -0.933  -2.523   1.305  0.00  0.00     0.274 C 
ATOM      9  C10 <0> d          -3.271  -2.721   1.315  0.00  0.00     0.002 A 
ATOM     10  N1  <0> d          -1.413  -2.002   0.005  0.00  0.00    -0.063 N 
ATOM     11  C11 <0> d          -2.788  -2.540  -0.106  0.00  0.00     0.276 C 
ATOM     12  H31 <0> d          -0.838  -2.344  -0.750  0.00  0.00     0.280 HD
BRANCH  10  13
ATOM     13  C3  <0> d          -1.433  -0.534   0.013  0.00  0.00     0.235 C 
BRANCH  13  14
ATOM     14  C2  <0> d           0.002  -0.004   0.002  0.00  0.00     0.023 C 
ATOM     15  C1  <0> d          -0.019   1.526   0.010  0.00  0.00     0.007 C 
ENDBRANCH  13  14
ENDBRANCH  10  13
ENDBRANCH   1   3
BRANCH   1  16
ATOM     16  C12 <0> d          -7.000  -3.062   1.566  0.00  0.00     0.170 C 
ATOM     17  C13 <0> d          -7.539  -1.703   2.017  0.00  0.00     0.042 C 
BRANCH  16  18
ATOM     18  C14 <0> d          -7.914  -3.641   0.517  0.00  0.00     0.247 C 
ATOM     19  O1  <0> d          -7.487  -3.889  -0.590  0.00  0.00    -0.271 OA
ATOM     20  N3  <0> d          -9.207  -3.885   0.810  0.00  0.00    -0.278 N 
ATOM     21  C15 <0> d         -10.025  -4.403  -0.127  0.00  0.00     0.323 C 
ATOM     22  H20 <0> d          -9.549  -3.687   1.696  0.00  0.00     0.173 HD
ATOM     23  O2  <0> d          -9.596  -4.651  -1.237  0.00  0.00    -0.247 OA
ATOM     24  N4  <0> d         -11.318  -4.646   0.166  0.00  0.00    -0.335 N 
ATOM     25  H21 <0> d         -11.659  -4.449   1.052  0.00  0.00     0.165 HD
BRANCH  24  26
ATOM     26  C16 <0> d         -12.206  -5.210  -0.853  0.00  0.00     0.023 C 
ATOM     27  C17 <0> d         -11.668  -6.569  -1.305  0.00  0.00     0.037 C 
ATOM     28  C18 <0> d         -13.608  -5.387  -0.266  0.00  0.00     0.037 C 
ATOM     29  C19 <0> d         -12.271  -4.263  -2.053  0.00  0.00     0.037 C 
ENDBRANCH  24  26
ENDBRANCH  16  18
ENDBRANCH   1  16
TORSDOF 6
