REMARK  4 active torsions:
REMARK  status: ('A' for Active; 'I' for Inactive)
REMARK    1  A    between atoms: C2_2  and  C4_4 
REMARK    2  A    between atoms: C2_2  and  N2_7 
REMARK    3  A    between atoms: N2_7  and  S2_8 
REMARK    4  A    between atoms: S2_8  and  C5_11 
ROOT
ATOM      1  N2  <0> d           0.467  -0.689  -1.316  0.00  0.00    -0.300 N 
ATOM      2  H9  <0> d           0.015  -1.484  -1.637  0.00  0.00     0.173 HD
ENDROOT
BRANCH   1   3
ATOM      3  C2  <0> d          -0.269   0.306  -0.531  0.00  0.00     0.086 C 
ATOM      4  C1  <0> d          -0.055   1.694  -1.138  0.00  0.00     0.046 C 
ATOM      5  C3  <0> d           0.241   0.296   0.911  0.00  0.00     0.046 C 
BRANCH   3   6
ATOM      6  C4  <0> d          -1.738  -0.029  -0.547  0.00  0.00     0.099 C 
ATOM      7  S1  <0> d          -2.257  -1.313  -1.347  0.00  0.00    -0.063 SA
ATOM      8  N1  <0> d          -2.614   0.753   0.114  0.00  0.00    -0.391 N 
ATOM      9  H7  <0> d          -2.299   1.531   0.599  0.00  0.00     0.156 HD
ATOM     10  H8  <0> d          -3.560   0.537   0.104  0.00  0.00     0.156 HD
ENDBRANCH   3   6
ENDBRANCH   1   3
BRANCH   1  11
ATOM     11  S2  <0> d           2.071  -0.454  -1.655  0.00  0.00     0.261 S 
ATOM     12  O1  <0> d           2.686  -0.040  -0.443  0.00  0.00    -0.200 OA
ATOM     13  O2  <0> d           2.505  -1.598  -2.378  0.00  0.00    -0.200 OA
BRANCH  11  14
ATOM     14  C5  <0> d           2.175   0.911  -2.765  0.00  0.00     0.098 A 
ATOM     15  C9  <0> d           2.496   2.171  -2.296  0.00  0.00     0.141 A 
ATOM     16  N3  <0> d           2.581   3.197  -3.120  0.00  0.00    -0.270 NA
ATOM     17  C8  <0> d           2.354   3.068  -4.413  0.00  0.00     0.135 A 
ATOM     18  C7  <0> d           2.022   1.839  -4.954  0.00  0.00     0.030 A 
ATOM     19  C6  <0> d           1.929   0.736  -4.118  0.00  0.00     0.047 A 
ATOM     20 Br1  <0> d           1.698   1.665  -6.809  0.00  0.00    -0.050 Br
ENDBRANCH  11  14
ENDBRANCH   1  11
TORSDOF 4
