REMARK  6 active torsions:
REMARK  status: ('A' for Active; 'I' for Inactive)
REMARK    1  A    between atoms: O1_2  and  C2_3 
REMARK    2  A    between atoms: C6_7  and  C8_10 
REMARK    3  A    between atoms: C7_8  and  O2_9 
REMARK       I    between atoms: C8_10  and  N1_12 
REMARK    4  A    between atoms: N1_12  and  N2_13 
REMARK    5  A    between atoms: N2_13  and  S1_14 
REMARK    6  A    between atoms: S1_14  and  C9_17 
ROOT
ATOM      1  N2  <0> d          -3.833  -6.164   0.023  0.00  0.00    -0.220 N 
ATOM      2  H9  <0> d          -3.380  -6.671  -0.669  0.00  0.00     0.200 HD
ENDROOT
BRANCH   1   3
ATOM      3  N1  <0> d          -3.766  -4.765   0.024  0.00  0.00    -0.256 N 
ATOM      4  C8  <0> d          -2.568  -4.147   0.016  0.00  0.00     0.273 C 
ATOM      5  O3  <0> d          -1.545  -4.805   0.007  0.00  0.00    -0.266 OA
ATOM      6  H8  <0> d          -4.582  -4.240   0.030  0.00  0.00     0.191 HD
BRANCH   4   7
ATOM      7  C6  <0> d          -2.498  -2.673   0.017  0.00  0.00     0.069 A 
ATOM      8  C5  <0> d          -3.671  -1.914   0.026  0.00  0.00     0.020 A 
ATOM      9  C4  <0> d          -3.602  -0.538   0.028  0.00  0.00     0.004 A 
ATOM     10  C3  <0> d          -2.373   0.100   0.019  0.00  0.00     0.040 A 
ATOM     11  C2  <0> d          -1.201  -0.638   0.010  0.00  0.00     0.102 A 
ATOM     12  C7  <0> d          -1.255  -2.028   0.003  0.00  0.00     0.114 A 
BRANCH  11  13
ATOM     13  O1  <0> d           0.002  -0.004   0.002  0.00  0.00    -0.353 OA
ATOM     14  C1  <0> d          -0.017   1.425   0.010  0.00  0.00     0.210 C 
ENDBRANCH  11  13
BRANCH  12  15
ATOM     15  O2  <0> d          -0.109  -2.756  -0.012  0.00  0.00    -0.357 OA
ATOM     16  H7  <0> d           0.231  -2.971   0.867  0.00  0.00     0.217 HD
ENDBRANCH  12  15
ENDBRANCH   4   7
ENDBRANCH   1   3
BRANCH   1  17
ATOM     17  S1  <0> d          -4.685  -6.953   1.203  0.00  0.00     0.276 S 
ATOM     18  O4  <0> d          -4.686  -8.330   0.851  0.00  0.00    -0.199 OA
ATOM     19  O5  <0> d          -4.185  -6.485   2.447  0.00  0.00    -0.199 OA
BRANCH  17  20
ATOM     20  C9  <0> d          -6.356  -6.405   1.094  0.00  0.00     0.084 A 
ATOM     21  C14 <0> d          -7.252  -7.078   0.282  0.00  0.00     0.065 A 
ATOM     22  C13 <0> d          -8.565  -6.646   0.203  0.00  0.00     0.103 A 
ATOM     23  C12 <0> d          -8.977  -5.537   0.926  0.00  0.00     0.102 A 
ATOM     24  O6  <0> d          -9.459  -7.304  -0.591  0.00  0.00    -0.348 OA
ATOM     25  C11 <0> d          -8.077  -4.862   1.734  0.00  0.00     0.041 A 
ATOM     26  O7  <0> d         -10.272  -5.116   0.837  0.00  0.00    -0.348 OA
ATOM     27  C10 <0> d          -6.767  -5.299   1.815  0.00  0.00     0.028 A 
ATOM     28  C17 <0> d         -11.252  -5.984   1.409  0.00  0.00     0.178 C 
ATOM     29  C16 <0> d         -11.654  -7.069   0.422  0.00  0.00     0.053 C 
ATOM     30  C15 <0> d         -10.502  -8.005   0.090  0.00  0.00     0.178 C 
ENDBRANCH  17  20
ENDBRANCH   1  17
TORSDOF 6
