REMARK  3 active torsions:
REMARK  status: ('A' for Active; 'I' for Inactive)
REMARK    1  A    between atoms: C2_2  and  C3_3 
REMARK    2  A    between atoms: C2_2  and  N2_9 
REMARK    3  A    between atoms: C3_3  and  N1_4 
ROOT
ATOM      1  N2  <0> d           0.711  -0.489   1.189  0.00  0.00    -0.328 N 
ATOM      2  C8  <0> d           0.242  -0.173   2.434  0.00  0.00     0.099 A 
ATOM      3  C9  <0> d           0.895  -0.621   3.528  0.00  0.00     0.091 A 
ATOM      4  C10 <0> d           2.057  -1.412   3.361  0.00  0.00     0.248 A 
ATOM      5  O1  <0> d           2.662  -1.828   4.333  0.00  0.00    -0.268 OA
ATOM      6  N3  <0> d           2.486  -1.702   2.116  0.00  0.00    -0.300 N 
ATOM      7  H2  <0> d           3.281  -2.244   1.994  0.00  0.00     0.171 HD
ATOM      8  C11 <0> d           1.813  -1.247   1.044  0.00  0.00     0.181 A 
ATOM      9  S1  <0> d           2.371  -1.632  -0.529  0.00  0.00    -0.040 SA
ENDROOT
BRANCH   1  10
ATOM     10  C2  <0> d           0.002  -0.004   0.002  0.00  0.00     0.113 C 
ATOM     11  C1  <0> d          -0.019   1.526   0.010  0.00  0.00     0.034 C 
BRANCH  10  12
ATOM     12  C3  <0> d          -1.433  -0.534   0.013  0.00  0.00     0.260 C 
BRANCH  12  13
ATOM     13  N1  <0> d          -1.414  -1.998   0.126  0.00  0.00    -0.069 N 
ATOM     14  C7  <0> d          -2.788  -2.536   0.017  0.00  0.00     0.235 C 
ATOM     15  C6  <0> d          -2.874  -3.748   0.963  0.00  0.00     0.029 C 
ATOM     16  C5  <0> d          -1.483  -3.839   1.631  0.00  0.00     0.029 C 
ATOM     17  C4  <0> d          -0.926  -2.402   1.469  0.00  0.00     0.235 C 
ATOM     18  H18 <0> d          -0.827  -2.395  -0.593  0.00  0.00     0.280 HD
ENDBRANCH  12  13
ENDBRANCH  10  12
ENDBRANCH   1  10
TORSDOF 3
