REMARK  5 active torsions:
REMARK  status: ('A' for Active; 'I' for Inactive)
REMARK    1  A    between atoms: C5_5  and  C7_7 
REMARK    2  A    between atoms: N1_11  and  C11_15 
REMARK    3  A    between atoms: C11_15  and  C12_16 
REMARK       I    between atoms: C12_16  and  N2_18 
REMARK    4  A    between atoms: N2_18  and  C13_19 
REMARK    5  A    between atoms: C18_24  and  N3_25 
ROOT
ATOM      1  C7  <0> d           1.219  -2.169  -0.080  0.00  0.00     0.038 C 
ATOM      2  C8  <0> d           0.063  -2.866   0.052  0.00  0.00     0.079 A 
ATOM      3  C9  <0> d          -0.150  -4.323   0.175  0.00  0.00     0.268 A 
ATOM      4  O1  <0> d           0.780  -5.108   0.169  0.00  0.00    -0.266 OA
ATOM      5  N1  <0> d          -1.403  -4.730   0.293  0.00  0.00    -0.265 N 
ATOM      6  C10 <0> d          -2.430  -3.857   0.300  0.00  0.00     0.294 A 
ATOM      7  O2  <0> d          -3.619  -4.090   0.401  0.00  0.00    -0.259 OA
ATOM      8  S1  <0> d          -1.621  -2.273   0.132  0.00  0.00    -0.023 SA
ENDROOT
BRANCH   5   9
ATOM      9  C11 <0> d          -1.681  -6.163   0.419  0.00  0.00     0.239 C 
BRANCH   9  10
ATOM     10  C12 <0> d          -1.677  -6.549   1.876  0.00  0.00     0.240 C 
ATOM     11  O3  <0> d          -1.463  -5.710   2.725  0.00  0.00    -0.271 OA
ATOM     12  N2  <0> d          -1.911  -7.827   2.235  0.00  0.00    -0.324 N 
ATOM     13  H8  <0> d          -1.999  -8.514   1.555  0.00  0.00     0.169 HD
BRANCH  12  14
ATOM     14  C13 <0> d          -2.029  -8.164   3.588  0.00  0.00     0.068 A 
ATOM     15  C18 <0> d          -1.752  -9.457   4.010  0.00  0.00     0.129 A 
ATOM     16  C17 <0> d          -1.863  -9.785   5.347  0.00  0.00     0.038 A 
ATOM     17  C16 <0> d          -2.261  -8.829   6.263  0.00  0.00     0.003 A 
ATOM     18  C15 <0> d          -2.543  -7.541   5.846  0.00  0.00     0.002 A 
ATOM     19  C14 <0> d          -2.428  -7.206   4.511  0.00  0.00     0.032 A 
BRANCH  15  20
ATOM     20  N3  <0> d          -1.333 -10.483   3.028  0.00  0.00    -0.113 N 
ATOM     21  O4  <0> d          -1.187 -11.631   3.378  0.00  0.00    -0.532 OA
ATOM     22  O5  <0> d          -1.136 -10.172   1.876  0.00  0.00    -0.532 OA
ENDBRANCH  15  20
ENDBRANCH  12  14
ENDBRANCH   9  10
ENDBRANCH   5   9
BRANCH   1  23
ATOM     23  C5  <0> d           1.199  -0.700  -0.054  0.00  0.00    -0.013 A 
ATOM     24  C4  <0> d           2.219   0.029  -0.678  0.00  0.00     0.044 A 
ATOM     25  C3  <0> d           2.192   1.409  -0.648  0.00  0.00     0.024 A 
ATOM     26 Cl1  <0> d           3.513  -0.799  -1.486  0.00  0.00    -0.083 Cl
ATOM     27  C2  <0> d           1.161   2.071  -0.004  0.00  0.00     0.002 A 
ATOM     28  C1  <0> d           0.148   1.356   0.614  0.00  0.00     0.001 A 
ATOM     29  C6  <0> d           0.160  -0.022   0.594  0.00  0.00     0.013 A 
ENDBRANCH   1  23
TORSDOF 5
