REMARK  6 active torsions:
REMARK  status: ('A' for Active; 'I' for Inactive)
REMARK    1  A    between atoms: C4_4  and  C10_14 
REMARK    2  A    between atoms: C6_6  and  S1_9 
REMARK    3  A    between atoms: S1_9  and  N1_12 
REMARK       I    between atoms: C10_14  and  N2_16 
REMARK    4  A    between atoms: N2_16  and  C11_17 
REMARK    5  A    between atoms: C14_20  and  N3_23 
REMARK       I    between atoms: N3_23  and  C17_24 
REMARK       I    between atoms: C17_24  and  N4_26 
REMARK    6  A    between atoms: N4_26  and  C18_27 
ROOT
ATOM      1  C10 <0> d          -5.589  -2.556  -0.064  0.00  0.00     0.256 C 
ATOM      2  O3  <0> d          -4.622  -3.248   0.186  0.00  0.00    -0.267 OA
ATOM      3  N2  <0> d          -5.448  -1.221  -0.187  0.00  0.00    -0.323 N 
ATOM      4  H13 <0> d          -6.306  -0.603  -0.489  0.00  0.00     0.169 HD
ENDROOT
BRANCH   3   5
ATOM      5  C11 <0> d          -4.210  -0.621   0.070  0.00  0.00     0.035 A 
ATOM      6  C16 <0> d          -3.035  -1.280  -0.268  0.00  0.00     0.032 A 
ATOM      7  C15 <0> d          -1.814  -0.686  -0.020  0.00  0.00     0.032 A 
ATOM      8  C14 <0> d          -1.760   0.566   0.578  0.00  0.00     0.036 A 
ATOM      9  C13 <0> d          -2.934   1.226   0.916  0.00  0.00     0.032 A 
ATOM     10  C12 <0> d          -4.155   0.634   0.663  0.00  0.00     0.032 A 
BRANCH   8  11
ATOM     11  N3  <0> d          -0.520   1.167   0.835  0.00  0.00    -0.309 N 
ATOM     12  C17 <0> d           0.545   0.405   1.152  0.00  0.00     0.321 C 
ATOM     13  O4  <0> d           0.411  -0.794   1.308  0.00  0.00    -0.247 OA
ATOM     14  N4  <0> d           1.761   0.970   1.290  0.00  0.00    -0.339 N 
ATOM     15  H19 <0> d           1.883   2.054   1.149  0.00  0.00     0.164 HD
ATOM     16  H18 <0> d          -0.417   2.260   0.778  0.00  0.00     0.170 HD
BRANCH  14  17
ATOM     17  C18 <0> d           2.920   0.140   1.628  0.00  0.00     0.078 C 
ATOM     18  C19 <0> d           4.197   0.822   1.134  0.00  0.00     0.032 C 
ATOM     19  C20 <0> d           2.993  -0.039   3.146  0.00  0.00     0.032 C 
ENDBRANCH  14  17
ENDBRANCH   8  11
ENDBRANCH   3   5
BRANCH   1  20
ATOM     20  C4  <0> d          -6.919  -3.177  -0.233  0.00  0.00     0.034 A 
ATOM     21  C3  <0> d          -8.032  -2.385  -0.519  0.00  0.00     0.024 A 
ATOM     22  C2  <0> d          -9.271  -2.971  -0.676  0.00  0.00    -0.054 A 
ATOM     23  C1  <0> d         -10.473  -2.118  -0.986  0.00  0.00     0.049 C 
ATOM     24  C7  <0> d          -9.412  -4.342  -0.550  0.00  0.00    -0.033 A 
ATOM     25  C6  <0> d          -8.313  -5.133  -0.265  0.00  0.00     0.086 A 
ATOM     26  C8  <0> d         -10.768  -4.976  -0.722  0.00  0.00     0.050 C 
ATOM     27  C5  <0> d          -7.067  -4.560  -0.112  0.00  0.00     0.042 A 
BRANCH  25  28
ATOM     28  S1  <0> d          -8.503  -6.878  -0.106  0.00  0.00     0.259 S 
ATOM     29  O1  <0> d          -7.204  -7.410   0.116  0.00  0.00    -0.201 OA
ATOM     30  O2  <0> d          -9.577  -7.088   0.801  0.00  0.00    -0.201 OA
BRANCH  28  31
ATOM     31  N1  <0> d          -9.005  -7.452  -1.575  0.00  0.00    -0.320 N 
ATOM     32  C9  <0> d          -8.125  -7.347  -2.742  0.00  0.00     0.159 C 
ATOM     33  H9  <0> d         -10.054  -7.758  -1.703  0.00  0.00     0.171 HD
ENDBRANCH  28  31
ENDBRANCH  25  28
ENDBRANCH   1  20
TORSDOF 6
