REMARK  3 active torsions:
REMARK  status: ('A' for Active; 'I' for Inactive)
REMARK    1  A    between atoms: C4_4  and  S1_9 
REMARK    2  A    between atoms: S1_9  and  C7_10 
REMARK    3  A    between atoms: C7_10  and  C9_12 
REMARK       I    between atoms: C9_12  and  N3_14 
ROOT
ATOM      1  C1  <0> d           0.159   0.841   2.351  0.00  0.00     0.072 C 
ATOM      2  C2  <0> d           0.104  -0.594   1.896  0.00  0.00     0.056 A 
ATOM      3  C3  <0> d           0.355  -0.925   0.561  0.00  0.00     0.104 A 
ATOM      4  C4  <0> d           0.290  -2.286   0.192  0.00  0.00     0.119 A 
ATOM      5  N1  <0> d          -0.006  -3.187   1.125  0.00  0.00    -0.225 NA
ATOM      6  C5  <0> d          -0.235  -2.822   2.369  0.00  0.00     0.123 A 
ATOM      7  N2  <0> d          -0.177  -1.561   2.754  0.00  0.00    -0.237 NA
ATOM      8  C6  <0> d          -0.567  -3.880   3.389  0.00  0.00     0.093 C 
ATOM      9  C20 <0> d           0.670   0.086  -0.403  0.00  0.00     0.104 C 
ATOM     10  N5  <0> d           0.919   0.888  -1.167  0.00  0.00    -0.191 NA
ENDROOT
BRANCH   4  11
ATOM     11  S1  <0> d           0.594  -2.781  -1.471  0.00  0.00    -0.095 SA
BRANCH  11  12
ATOM     12  C7  <0> d           0.394  -4.584  -1.436  0.00  0.00     0.142 C 
ATOM     13  C8  <0> d          -1.058  -4.930  -1.102  0.00  0.00     0.031 C 
BRANCH  12  14
ATOM     14  C9  <0> d           0.750  -5.155  -2.784  0.00  0.00     0.239 C 
ATOM     15  O1  <0> d           1.044  -4.414  -3.699  0.00  0.00    -0.272 OA
ATOM     16  N3  <0> d           0.741  -6.489  -2.974  0.00  0.00    -0.297 N 
ATOM     17  C17 <0> d           0.597  -7.416  -1.842  0.00  0.00     0.114 C 
ATOM     18  C10 <0> d           0.876  -7.038  -4.259  0.00  0.00     0.065 A 
ATOM     19  C16 <0> d           1.545  -8.569  -2.022  0.00  0.00     0.250 C 
ATOM     20  C18 <0> d           0.922  -6.686  -0.538  0.00  0.00     0.049 C 
ATOM     21  C19 <0> d          -0.839  -7.943  -1.792  0.00  0.00     0.049 C 
ATOM     22  N4  <0> d           1.916  -8.972  -3.252  0.00  0.00    -0.323 N 
ATOM     23  O2  <0> d           1.984  -9.141  -1.047  0.00  0.00    -0.270 OA
ATOM     24  C15 <0> d           1.465  -8.297  -4.392  0.00  0.00     0.062 A 
ATOM     25  H15 <0> d           2.503  -9.738  -3.349  0.00  0.00     0.169 HD
ATOM     26  C14 <0> d           1.602  -8.861  -5.650  0.00  0.00     0.032 A 
ATOM     27  C13 <0> d           1.160  -8.173  -6.765  0.00  0.00     0.002 A 
ATOM     28  C12 <0> d           0.580  -6.924  -6.631  0.00  0.00     0.002 A 
ATOM     29  C11 <0> d           0.437  -6.354  -5.378  0.00  0.00     0.032 A 
ENDBRANCH  12  14
ENDBRANCH  11  12
ENDBRANCH   4  11
TORSDOF 3
