REMARK  6 active torsions:
REMARK  status: ('A' for Active; 'I' for Inactive)
REMARK    1  A    between atoms: C2_2  and  C3_3 
REMARK    2  A    between atoms: C3_3  and  C7_8 
REMARK       I    between atoms: C7_8  and  N2_10 
REMARK    3  A    between atoms: N2_10  and  C9_12 
REMARK    4  A    between atoms: C9_12  and  C10_13 
REMARK       I    between atoms: C10_13  and  N3_15 
REMARK    5  A    between atoms: N3_15  and  C11_16 
REMARK    6  A    between atoms: C11_16  and  C12_17 
ROOT
ATOM      1  C7  <0> d           0.129   0.156  -2.599  0.00  0.00     0.230 C 
ATOM      2  O1  <0> d          -0.420  -0.589  -3.382  0.00  0.00    -0.272 OA
ATOM      3  N2  <0> d           0.246   1.468  -2.885  0.00  0.00    -0.347 N 
ATOM      4  C8  <0> d           0.817   2.385  -1.896  0.00  0.00     0.153 C 
ENDROOT
BRANCH   3   5
ATOM      5  C9  <0> d          -0.198   1.976  -4.185  0.00  0.00     0.227 C 
BRANCH   5   6
ATOM      6  C10 <0> d          -1.647   2.383  -4.097  0.00  0.00     0.235 C 
ATOM      7  O2  <0> d          -2.249   2.260  -3.051  0.00  0.00    -0.272 OA
ATOM      8  N3  <0> d          -2.273   2.883  -5.181  0.00  0.00    -0.351 N 
ATOM      9  H18 <0> d          -1.792   2.981  -6.017  0.00  0.00     0.162 HD
BRANCH   8  10
ATOM     10  C11 <0> d          -3.682   3.278  -5.095  0.00  0.00     0.240 C 
BRANCH  10  11
ATOM     11  C12 <0> d          -4.146   3.809  -6.453  0.00  0.00     0.403 C 
ATOM     12  F1  <0> d          -4.000   2.808  -7.420  0.00  0.00    -0.169 F 
ATOM     13  F2  <0> d          -5.490   4.186  -6.371  0.00  0.00    -0.169 F 
ATOM     14  F3  <0> d          -3.371   4.918  -6.809  0.00  0.00    -0.169 F 
ENDBRANCH  10  11
ENDBRANCH   8  10
ENDBRANCH   5   6
ENDBRANCH   3   5
BRANCH   1  15
ATOM     15  C3  <0> d           0.681  -0.385  -1.305  0.00  0.00     0.066 C 
ATOM     16  C6  <0> d          -0.135   0.137  -0.103  0.00  0.00     0.251 C 
ATOM     17  N1  <0> d          -1.127  -0.900   0.234  0.00  0.00    -0.074 N 
ATOM     18  C5  <0> d          -0.977  -2.023  -0.717  0.00  0.00     0.233 C 
ATOM     19  H10 <0> d          -2.058  -0.517   0.162  0.00  0.00     0.277 HD
ATOM     20  H21 <0> d          -0.969  -1.229   1.175  0.00  0.00     0.277 HD
ATOM     21  C4  <0> d           0.485  -1.921  -1.220  0.00  0.00     0.048 C 
BRANCH  15  22
ATOM     22  C2  <0> d           2.159  -0.019  -1.155  0.00  0.00     0.016 C 
ATOM     23  C1  <0> d           2.918  -0.437  -2.416  0.00  0.00     0.006 C 
ENDBRANCH  15  22
ENDBRANCH   1  15
TORSDOF 6
