REMARK  2 active torsions:
REMARK  status: ('A' for Active; 'I' for Inactive)
REMARK    1  A    between atoms: C3_3  and  N3_9 
REMARK    2  A    between atoms: N3_9  and  C7_10 
ROOT
ATOM      1  C7  <0> d           0.204   1.106  -2.727  0.00  0.00     0.212 A 
ATOM      2  C8  <0> d          -0.585   1.642  -3.900  0.00  0.00     0.025 A 
ATOM      3  C9  <0> d          -1.931   1.849  -4.107  0.00  0.00     0.045 A 
ATOM      4  C10 <0> d          -2.373   2.366  -5.314  0.00  0.00     0.028 A 
ATOM      5  C11 <0> d          -1.460   2.672  -6.306  0.00  0.00     0.046 A 
ATOM      6  C12 <0> d          -0.110   2.466  -6.101  0.00  0.00     0.143 A 
ATOM      7  C13 <0> d           0.342   1.946  -4.887  0.00  0.00     0.084 A 
ATOM      8  N4  <0> d           1.634   1.651  -4.445  0.00  0.00    -0.322 N 
ATOM      9  C14 <0> d           1.643   1.157  -3.192  0.00  0.00     0.249 A 
ATOM     10  O1  <0> d           2.619   0.818  -2.556  0.00  0.00    -0.270 OA
ATOM     11  F1  <0> d           0.775   2.768  -7.076  0.00  0.00    -0.204 F 
ATOM     12 Cl1  <0> d          -3.073   1.461  -2.858  0.00  0.00    -0.084 Cl
ATOM     13  H14 <0> d           2.432   1.787  -4.978  0.00  0.00     0.169 HD
ENDROOT
BRANCH   1  14
ATOM     14  N3  <0> d          -0.191  -0.274  -2.431  0.00  0.00    -0.370 N 
ATOM     15  H11 <0> d           0.185  -1.006  -2.944  0.00  0.00     0.161 HD
BRANCH  14  16
ATOM     16  C3  <0> d          -1.116  -0.536  -1.402  0.00  0.00     0.079 A 
ATOM     17  C2  <0> d          -0.946  -0.236  -0.043  0.00  0.00     0.079 A 
ATOM     18  C1  <0> d           0.262   0.425   0.570  0.00  0.00     0.075 C 
ATOM     19  N2  <0> d          -2.012  -0.633   0.603  0.00  0.00    -0.175 NA
ATOM     20  N1  <0> d          -2.905  -1.192  -0.320  0.00  0.00    -0.276 N 
ATOM     21  C4  <0> d          -2.330  -1.125  -1.550  0.00  0.00     0.054 A 
ATOM     22  C5  <0> d          -4.223  -1.754  -0.014  0.00  0.00     0.179 C 
ATOM     23  C6  <0> d          -2.931  -1.614  -2.842  0.00  0.00     0.072 C 
ENDBRANCH  14  16
ENDBRANCH   1  14
TORSDOF 2
