REMARK  8 active torsions:
REMARK  status: ('A' for Active; 'I' for Inactive)
REMARK    1  A    between atoms: C2_2  and  O1_3 
REMARK    2  A    between atoms: O1_3  and  C3_4 
REMARK    3  A    between atoms: C6_7  and  C9_10 
REMARK    4  A    between atoms: C11_12  and  C16_23 
REMARK    5  A    between atoms: N3_19  and  C14_20 
REMARK    6  A    between atoms: C14_20  and  C15_21 
REMARK    7  A    between atoms: C15_21  and  O3_22 
REMARK    8  A    between atoms: C21_28  and  O4_29 
ROOT
ATOM      1  C9  <0> d          -2.222  -5.663   0.165  0.00  0.00     0.159 A 
ATOM      2  C10 <0> d          -2.295  -6.412   1.468  0.00  0.00     0.034 A 
ATOM      3  C11 <0> d          -1.679  -6.725   2.684  0.00  0.00     0.101 A 
ATOM      4  N1  <0> d          -2.487  -7.536   3.338  0.00  0.00    -0.173 NA
ATOM      5  N2  <0> d          -3.552  -7.765   2.656  0.00  0.00    -0.272 N 
ATOM      6  H2  <0> d          -4.285  -8.333   2.941  0.00  0.00     0.189 HD
ATOM      7  C12 <0> d          -3.498  -7.091   1.469  0.00  0.00     0.129 A 
ATOM      8  C13 <0> d          -4.198  -6.803   0.212  0.00  0.00     0.273 A 
ATOM      9  O2  <0> d          -5.287  -7.250  -0.094  0.00  0.00    -0.266 OA
ATOM     10  N3  <0> d          -3.464  -5.974  -0.554  0.00  0.00    -0.332 N 
ENDROOT
BRANCH   3  11
ATOM     11  C16 <0> d          -0.358  -6.236   3.151  0.00  0.00     0.030 A 
ATOM     12  C21 <0> d           0.080  -6.527   4.446  0.00  0.00     0.079 A 
ATOM     13  C20 <0> d           1.317  -6.072   4.873  0.00  0.00     0.045 A 
ATOM     14  C19 <0> d           2.110  -5.322   4.025  0.00  0.00    -0.038 A 
ATOM     15  C18 <0> d           1.677  -5.027   2.743  0.00  0.00     0.041 A 
ATOM     16  C22 <0> d           3.451  -4.824   4.497  0.00  0.00     0.050 C 
ATOM     17  C17 <0> d           0.448  -5.481   2.304  0.00  0.00     0.041 A 
ATOM     18 Cl1  <0> d           2.681  -4.086   1.685  0.00  0.00    -0.084 Cl
BRANCH  12  19
ATOM     19  O4  <0> d          -0.703  -7.259   5.282  0.00  0.00    -0.360 OA
ATOM     20  H19 <0> d          -0.550  -8.212   5.229  0.00  0.00     0.217 HD
ENDBRANCH  12  19
ENDBRANCH   3  11
BRANCH   1  21
ATOM     21  C6  <0> d          -2.128  -4.182   0.423  0.00  0.00    -0.030 A 
ATOM     22  C5  <0> d          -3.211  -3.503   0.951  0.00  0.00     0.012 A 
ATOM     23  C4  <0> d          -3.127  -2.145   1.189  0.00  0.00     0.037 A 
ATOM     24  C3  <0> d          -1.956  -1.461   0.896  0.00  0.00     0.068 A 
ATOM     25  C8  <0> d          -0.873  -2.143   0.360  0.00  0.00     0.037 A 
ATOM     26  C7  <0> d          -0.960  -3.503   0.130  0.00  0.00     0.012 A 
BRANCH  24  27
ATOM     27  O1  <0> d          -1.871  -0.125   1.128  0.00  0.00    -0.352 OA
BRANCH  27  28
ATOM     28  C2  <0> d          -3.025   0.511   1.681  0.00  0.00     0.171 C 
ATOM     29  C1  <0> d          -2.743   2.003   1.871  0.00  0.00     0.034 C 
ENDBRANCH  27  28
ENDBRANCH  24  27
ENDBRANCH   1  21
BRANCH  10  30
ATOM     30  C14 <0> d          -3.839  -5.468  -1.877  0.00  0.00     0.153 C 
BRANCH  30  31
ATOM     31  C15 <0> d          -3.329  -6.428  -2.954  0.00  0.00     0.184 C 
BRANCH  31  32
ATOM     32  O3  <0> d          -3.997  -7.685  -2.827  0.00  0.00    -0.399 OA
ATOM     33  H16 <0> d          -3.722  -8.344  -3.479  0.00  0.00     0.209 HD
ENDBRANCH  31  32
ENDBRANCH  30  31
ENDBRANCH  10  30
TORSDOF 8
