REMARK  9 active torsions:
REMARK  status: ('A' for Active; 'I' for Inactive)
REMARK    1  A    between atoms: C5_5  and  N3_21 
REMARK    2  A    between atoms: C7_7  and  N1_8 
REMARK       I    between atoms: N1_8  and  C8_9 
REMARK    3  A    between atoms: C8_9  and  C9_11 
REMARK    4  A    between atoms: C9_11  and  N2_13 
REMARK    5  A    between atoms: N2_13  and  C11_14 
REMARK    6  A    between atoms: N2_13  and  C14_18 
REMARK    7  A    between atoms: C11_14  and  C12_15 
REMARK    8  A    between atoms: C12_15  and  C13_16 
REMARK    9  A    between atoms: C13_16  and  O2_17 
ROOT
ATOM      1  N1  <0> d          -0.290   0.727   2.991  0.00  0.00    -0.325 N 
ATOM      2  C8  <0> d          -0.648  -0.226   3.875  0.00  0.00     0.253 C 
ATOM      3  O1  <0> d          -0.981  -1.323   3.481  0.00  0.00    -0.271 OA
ATOM      4  H8  <0> d           0.036   1.584   3.308  0.00  0.00     0.169 HD
ENDROOT
BRANCH   2   5
ATOM      5  C9  <0> d          -0.635   0.073   5.352  0.00  0.00     0.276 C 
ATOM      6  C10 <0> d          -2.055   0.397   5.820  0.00  0.00     0.050 C 
BRANCH   5   7
ATOM      7  N2  <0> d          -0.133  -1.098   6.084  0.00  0.00    -0.055 N 
ATOM      8  H28 <0> d          -0.237  -0.945   7.075  0.00  0.00     0.281 HD
BRANCH   7   9
ATOM      9  C11 <0> d          -0.899  -2.287   5.688  0.00  0.00     0.238 C 
BRANCH   9  10
ATOM     10  C12 <0> d          -0.841  -3.327   6.810  0.00  0.00     0.054 C 
BRANCH  10  11
ATOM     11  C13 <0> d          -1.544  -4.607   6.355  0.00  0.00     0.165 C 
BRANCH  11  12
ATOM     12  O2  <0> d          -1.490  -5.578   7.402  0.00  0.00    -0.401 OA
ATOM     13  H18 <0> d          -1.917  -6.418   7.183  0.00  0.00     0.209 HD
ENDBRANCH  11  12
ENDBRANCH  10  11
ENDBRANCH   9  10
ENDBRANCH   7   9
BRANCH   7  14
ATOM     14  C14 <0> d           1.287  -1.302   5.767  0.00  0.00     0.181 C 
ATOM     15  C15 <0> d           1.459  -1.424   4.251  0.00  0.00     0.040 C 
ATOM     16  C16 <0> d           2.100  -0.110   6.277  0.00  0.00     0.040 C 
ENDBRANCH   7  14
ENDBRANCH   5   7
ENDBRANCH   2   5
BRANCH   1  17
ATOM     17  C7  <0> d          -0.389   0.480   1.618  0.00  0.00     0.043 A 
ATOM     18  C2  <0> d          -0.674   1.521   0.743  0.00  0.00    -0.035 A 
ATOM     19  C1  <0> d          -0.878   2.917   1.274  0.00  0.00     0.050 C 
ATOM     20  C3  <0> d          -0.767   1.279  -0.614  0.00  0.00     0.011 A 
ATOM     21  C4  <0> d          -0.581   0.002  -1.106  0.00  0.00     0.029 A 
ATOM     22  C5  <0> d          -0.301  -1.045  -0.235  0.00  0.00     0.027 A 
ATOM     23  C6  <0> d          -0.207  -0.805   1.128  0.00  0.00     0.059 A 
BRANCH  22  24
ATOM     24  N3  <0> d          -0.115  -2.337  -0.732  0.00  0.00    -0.399 N 
ATOM     25  H26 <0> d          -0.180  -2.504  -1.686  0.00  0.00     0.156 HD
ATOM     26  H27 <0> d           0.081  -3.067  -0.124  0.00  0.00     0.156 HD
ENDBRANCH  22  24
ENDBRANCH   1  17
TORSDOF 9
