REMARK  6 active torsions:
REMARK  status: ('A' for Active; 'I' for Inactive)
REMARK    1  A    between atoms: C5_5  and  S1_9 
REMARK    2  A    between atoms: S1_9  and  N1_12 
REMARK    3  A    between atoms: N1_12  and  C9_13 
REMARK    4  A    between atoms: C9_13  and  C10_14 
REMARK       I    between atoms: C10_14  and  N2_16 
REMARK    5  A    between atoms: N2_16  and  N3_17 
REMARK       I    between atoms: N3_17  and  C11_18 
REMARK    6  A    between atoms: C11_18  and  C12_20 
ROOT
ATOM      1  C10 <0> d           2.385   0.791   0.351  0.00  0.00     0.254 C 
ATOM      2  O3  <0> d           2.166  -0.378   0.586  0.00  0.00    -0.270 OA
ATOM      3  N2  <0> d           3.646   1.265   0.406  0.00  0.00    -0.266 N 
ATOM      4  H13 <0> d           3.821   2.200   0.218  0.00  0.00     0.190 HD
ENDROOT
BRANCH   1   5
ATOM      5  C9  <0> d           1.248   1.716  -0.001  0.00  0.00     0.236 C 
BRANCH   5   6
ATOM      6  N1  <0> d          -0.011   0.966   0.007  0.00  0.00    -0.307 N 
ATOM      7  H10 <0> d           0.002  -0.004   0.002  0.00  0.00     0.172 HD
BRANCH   6   8
ATOM      8  S1  <0> d          -1.456   1.774   0.019  0.00  0.00     0.259 S 
ATOM      9  O1  <0> d          -2.475   0.784  -0.009  0.00  0.00    -0.201 OA
ATOM     10  O2  <0> d          -1.369   2.749   1.049  0.00  0.00    -0.201 OA
BRANCH   8  11
ATOM     11  C5  <0> d          -1.571   2.658  -1.502  0.00  0.00     0.080 A 
ATOM     12  C4  <0> d          -1.089   3.951  -1.588  0.00  0.00     0.026 A 
ATOM     13  C3  <0> d          -1.174   4.642  -2.782  0.00  0.00     0.009 A 
ATOM     14  C2  <0> d          -1.751   4.044  -3.887  0.00  0.00    -0.056 A 
ATOM     15  C1  <0> d          -1.849   4.799  -5.187  0.00  0.00     0.049 C 
ATOM     16  C7  <0> d          -2.238   2.753  -3.799  0.00  0.00    -0.055 A 
ATOM     17  C6  <0> d          -2.148   2.060  -2.606  0.00  0.00     0.032 A 
ATOM     18  C8  <0> d          -2.867   2.102  -5.004  0.00  0.00     0.049 C 
ENDBRANCH   8  11
ENDBRANCH   6   8
ENDBRANCH   5   6
ENDBRANCH   1   5
BRANCH   3  19
ATOM     19  N3  <0> d           4.703   0.406   0.733  0.00  0.00    -0.263 N 
ATOM     20  C11 <0> d           5.964   0.879   0.787  0.00  0.00     0.272 C 
ATOM     21  O4  <0> d           6.183   2.052   0.552  0.00  0.00    -0.266 OA
ATOM     22  H14 <0> d           4.528  -0.529   0.920  0.00  0.00     0.190 HD
BRANCH  20  23
ATOM     23  C12 <0> d           7.076  -0.024   1.131  0.00  0.00     0.065 A 
ATOM     24  C15 <0> d           8.399   0.295   1.228  0.00  0.00     0.065 A 
ATOM     25  O5  <0> d           9.076  -0.807   1.562  0.00  0.00    -0.319 OA
ATOM     26  C16 <0> d           8.995   1.660   0.996  0.00  0.00     0.077 C 
ATOM     27  C14 <0> d           8.249  -1.856   1.692  0.00  0.00     0.050 A 
ATOM     28  C13 <0> d           6.991  -1.457   1.448  0.00  0.00     0.052 A 
ATOM     29  C17 <0> d           8.665  -3.257   2.060  0.00  0.00     0.076 C 
ENDBRANCH  20  23
ENDBRANCH   3  19
TORSDOF 6
