REMARK  6 active torsions:
REMARK  status: ('A' for Active; 'I' for Inactive)
REMARK    1  A    between atoms: N1_12  and  C14_23 
REMARK    2  A    between atoms: C10_13  and  S2_15 
REMARK    3  A    between atoms: S2_15  and  C11_16 
REMARK    4  A    between atoms: C11_16  and  C12_17 
REMARK       I    between atoms: C12_17  and  N3_19 
REMARK       I    between atoms: N3_19  and  C13_20 
REMARK       I    between atoms: C13_20  and  N4_22 
REMARK    5  A    between atoms: C14_23  and  C15_24 
REMARK    6  A    between atoms: C15_24  and  C16_25 
ROOT
ATOM      1  C1  <0> d           1.397   3.572   0.258  0.00  0.00     0.010 C 
ATOM      2  C2  <0> d           1.415   2.064  -0.000  0.00  0.00    -0.014 C 
ATOM      3  C3  <0> d          -0.019   1.524   0.010  0.00  0.00     0.009 C 
ATOM      4  C4  <0> d           0.002  -0.004   0.002  0.00  0.00     0.041 C 
ATOM      5  C5  <0> d           0.873  -0.481  -1.157  0.00  0.00    -0.026 A 
ATOM      6  C6  <0> d           1.763   0.356  -1.737  0.00  0.00    -0.008 A 
ATOM      7  S1  <0> d           2.540  -0.602  -3.014  0.00  0.00    -0.073 SA
ATOM      8  C7  <0> d           1.673  -2.120  -2.768  0.00  0.00     0.117 A 
ATOM      9  C8  <0> d           0.801  -1.830  -1.694  0.00  0.00     0.075 A 
ATOM     10  C9  <0> d          -0.059  -2.886  -1.246  0.00  0.00     0.263 A 
ATOM     11  O1  <0> d          -0.846  -2.733  -0.327  0.00  0.00    -0.267 OA
ATOM     12  N1  <0> d           0.056  -4.062  -1.906  0.00  0.00    -0.292 N 
ATOM     13  C10 <0> d           0.928  -4.253  -2.935  0.00  0.00     0.172 A 
ATOM     14  N2  <0> d           1.737  -3.299  -3.374  0.00  0.00    -0.216 NA
ATOM     15  C19 <0> d           2.034   1.784  -1.377  0.00  0.00     0.051 C 
ENDROOT
BRANCH  13  16
ATOM     16  S2  <0> d           0.983  -5.833  -3.713  0.00  0.00    -0.082 SA
BRANCH  16  17
ATOM     17  C11 <0> d           2.262  -5.526  -4.957  0.00  0.00     0.185 C 
BRANCH  17  18
ATOM     18  C12 <0> d           2.485  -6.777  -5.767  0.00  0.00     0.235 C 
ATOM     19  O2  <0> d           1.842  -7.777  -5.528  0.00  0.00    -0.272 OA
ATOM     20  N3  <0> d           3.398  -6.784  -6.758  0.00  0.00    -0.279 N 
ATOM     21  C13 <0> d           3.598  -7.902  -7.483  0.00  0.00     0.320 C 
ATOM     22  H11 <0> d           3.912  -5.984  -6.949  0.00  0.00     0.173 HD
ATOM     23  O3  <0> d           2.954  -8.905  -7.243  0.00  0.00    -0.247 OA
ATOM     24  N4  <0> d           4.511  -7.910  -8.474  0.00  0.00    -0.352 N 
ATOM     25  H12 <0> d           5.025  -7.109  -8.665  0.00  0.00     0.160 HD
ATOM     26  H13 <0> d           4.655  -8.714  -8.995  0.00  0.00     0.160 HD
ENDBRANCH  17  18
ENDBRANCH  16  17
ENDBRANCH  13  16
BRANCH  12  27
ATOM     27  C14 <0> d          -0.796  -5.181  -1.494  0.00  0.00     0.135 C 
BRANCH  27  28
ATOM     28  C15 <0> d          -0.081  -5.996  -0.415  0.00  0.00     0.024 C 
BRANCH  28  29
ATOM     29  C16 <0> d          -0.971  -7.164   0.015  0.00  0.00    -0.021 C 
ATOM     30  C17 <0> d          -1.155  -8.124  -1.162  0.00  0.00     0.009 C 
ATOM     31  C18 <0> d          -0.311  -7.905   1.180  0.00  0.00     0.009 C 
ENDBRANCH  28  29
ENDBRANCH  27  28
ENDBRANCH  12  27
TORSDOF 6
