REMARK  3 active torsions:
REMARK  status: ('A' for Active; 'I' for Inactive)
REMARK    1  A    between atoms: C3_5  and  N3_7 
REMARK    2  A    between atoms: C4_8  and  C15_23 
REMARK    3  A    between atoms: C18_26  and  O4_29 
ROOT
ATOM      1  N3  <0> d           0.061  -3.979   0.736  0.00  0.00    -0.275 N 
ATOM      2  C4  <0> d           0.079  -5.134  -0.176  0.00  0.00     0.168 A 
ATOM      3  C5  <0> d           0.094  -6.344   0.700  0.00  0.00     0.060 A 
ATOM      4  C6  <0> d           0.105  -7.773   0.373  0.00  0.00     0.196 C 
ATOM      5  O1  <0> d           0.281  -8.198  -0.756  0.00  0.00    -0.287 OA
ATOM      6  C7  <0> d          -0.117  -8.653   1.548  0.00  0.00     0.051 A 
ATOM      7  C8  <0> d          -0.332 -10.021   1.374  0.00  0.00     0.060 A 
ATOM      8  C9  <0> d          -0.542 -10.822   2.476  0.00  0.00     0.117 A 
ATOM      9  C10 <0> d          -0.540 -10.268   3.750  0.00  0.00     0.045 A 
ATOM     10  C11 <0> d          -0.327  -8.920   3.932  0.00  0.00     0.041 A 
ATOM     11  C12 <0> d          -0.109  -8.089   2.833  0.00  0.00     0.090 A 
ATOM     12  O2  <0> d           0.107  -6.770   3.042  0.00  0.00    -0.303 OA
ATOM     13  C13 <0> d           0.090  -5.918   1.998  0.00  0.00     0.157 A 
ATOM     14  C14 <0> d           0.072  -4.446   2.002  0.00  0.00     0.285 A 
ATOM     15  O3  <0> d           0.066  -3.752   2.999  0.00  0.00    -0.265 OA
ATOM     16  F1  <0> d          -0.751 -12.148   2.316  0.00  0.00    -0.206 F 
ENDROOT
BRANCH   2  17
ATOM     17  C15 <0> d           1.316  -5.098  -1.036  0.00  0.00    -0.030 A 
ATOM     18  C20 <0> d           1.244  -5.474  -2.365  0.00  0.00     0.012 A 
ATOM     19  C19 <0> d           2.375  -5.436  -3.157  0.00  0.00     0.037 A 
ATOM     20  C18 <0> d           3.587  -5.030  -2.615  0.00  0.00     0.065 A 
ATOM     21  C17 <0> d           3.657  -4.659  -1.280  0.00  0.00     0.037 A 
ATOM     22  C16 <0> d           2.522  -4.694  -0.494  0.00  0.00     0.012 A 
BRANCH  20  23
ATOM     23  O4  <0> d           4.702  -4.997  -3.391  0.00  0.00    -0.361 OA
ATOM     24  H12 <0> d           5.205  -5.822  -3.392  0.00  0.00     0.217 HD
ENDBRANCH  20  23
ENDBRANCH   2  17
BRANCH   1  25
ATOM     25  C3  <0> d           0.041  -2.642   0.360  0.00  0.00     0.200 A 
ATOM     26  N2  <0> d           0.028  -2.096  -0.848  0.00  0.00    -0.123 NA
ATOM     27  N1  <0> d           0.010  -0.846  -1.013  0.00  0.00    -0.145 NA
ATOM     28  C2  <0> d           0.002  -0.004   0.002  0.00  0.00     0.097 A 
ATOM     29  C1  <0> d          -0.018   1.503   0.010  0.00  0.00     0.081 C 
ATOM     30  S1  <0> d           0.031  -1.162   1.367  0.00  0.00    -0.033 SA
ENDBRANCH   1  25
TORSDOF 3
