REMARK  3 active torsions:
REMARK  status: ('A' for Active; 'I' for Inactive)
REMARK    1  A    between atoms: N1_10  and  C9_11 
REMARK    2  A    between atoms: C10_12  and  C14_19 
REMARK    3  A    between atoms: C14_19  and  N4_20 
ROOT
ATOM      1  C9  <0> d           0.169  -1.137   2.323  0.00  0.00     0.154 A 
ATOM      2  C10 <0> d          -0.331  -2.390   2.323  0.00  0.00     0.089 A 
ATOM      3  N2  <0> d          -1.135  -2.523   3.459  0.00  0.00    -0.299 N 
ATOM      4  C11 <0> d          -1.915  -3.488   4.058  0.00  0.00     0.106 A 
ATOM      5  C12 <0> d          -2.565  -3.232   5.193  0.00  0.00     0.071 A 
ATOM      6  S2  <0> d          -2.099  -1.538   5.510  0.00  0.00    -0.062 SA
ATOM      7  C13 <0> d          -1.063  -1.307   4.083  0.00  0.00     0.179 A 
ATOM      8  N3  <0> d          -0.291  -0.499   3.413  0.00  0.00    -0.204 NA
ENDROOT
BRANCH   1   9
ATOM      9  N1  <0> d           1.027  -0.594   1.354  0.00  0.00    -0.355 N 
ATOM     10  C2  <0> d           0.480   0.063   0.159  0.00  0.00     0.116 C 
ATOM     11  C1  <0> d           0.676   1.576   0.264  0.00  0.00     0.037 C 
ATOM     12  C3  <0> d           1.234  -0.473  -1.057  0.00  0.00    -0.022 A 
ATOM     13  C6  <0> d           2.380  -1.188  -0.888  0.00  0.00    -0.008 A 
ATOM     14  C4  <0> d           0.810  -0.271  -2.369  0.00  0.00     0.017 A 
ATOM     15  S1  <0> d           2.879  -1.576  -2.545  0.00  0.00    -0.106 SA
ATOM     16  C7  <0> d           3.051  -1.558   0.394  0.00  0.00     0.066 C 
ATOM     17  C5  <0> d           1.531  -0.772  -3.398  0.00  0.00     0.051 A 
ATOM     18  C8  <0> d           2.487  -0.676   1.518  0.00  0.00     0.130 C 
ENDBRANCH   1   9
BRANCH   2  19
ATOM     19  C14 <0> d          -0.070  -3.453   1.288  0.00  0.00     0.290 C 
BRANCH  19  20
ATOM     20  N4  <0> d          -1.129  -3.416   0.270  0.00  0.00    -0.074 N 
ATOM     21  H15 <0> d          -2.022  -3.585   0.708  0.00  0.00     0.274 HD
ATOM     22  H16 <0> d          -1.138  -2.509  -0.173  0.00  0.00     0.274 HD
ATOM     23  H17 <0> d          -0.954  -4.127  -0.423  0.00  0.00     0.274 HD
ENDBRANCH  19  20
ENDBRANCH   2  19
TORSDOF 3
