REMARK  6 active torsions:
REMARK  status: ('A' for Active; 'I' for Inactive)
REMARK    1  A    between atoms: C7_7  and  N1_8 
REMARK    2  A    between atoms: N1_8  and  S1_9 
REMARK    3  A    between atoms: S1_9  and  C8_12 
REMARK    4  A    between atoms: C11_15  and  N2_18 
REMARK       I    between atoms: N2_18  and  C14_19 
REMARK    5  A    between atoms: C14_19  and  C15_21 
REMARK    6  A    between atoms: C15_21  and  N3_22 
ROOT
ATOM      1  C8  <0> d          -4.229   3.764   5.340  0.00  0.00     0.080 A 
ATOM      2  C9  <0> d          -5.185   4.385   4.559  0.00  0.00     0.027 A 
ATOM      3  C10 <0> d          -5.215   4.164   3.196  0.00  0.00     0.031 A 
ATOM      4  C11 <0> d          -4.284   3.316   2.611  0.00  0.00     0.034 A 
ATOM      5  C12 <0> d          -3.328   2.689   3.399  0.00  0.00     0.031 A 
ATOM      6  C13 <0> d          -3.300   2.919   4.761  0.00  0.00     0.027 A 
ENDROOT
BRANCH   4   7
ATOM      7  N2  <0> d          -4.312   3.089   1.230  0.00  0.00    -0.326 N 
ATOM      8  C14 <0> d          -4.657   4.085   0.391  0.00  0.00     0.241 C 
ATOM      9  O3  <0> d          -5.023   5.154   0.835  0.00  0.00    -0.271 OA
ATOM     10  H12 <0> d          -4.083   2.215   0.877  0.00  0.00     0.169 HD
BRANCH   8  11
ATOM     11  C15 <0> d          -4.590   3.872  -1.100  0.00  0.00     0.248 C 
BRANCH  11  12
ATOM     12  N3  <0> d          -5.013   5.095  -1.787  0.00  0.00    -0.228 N 
ATOM     13  S2  <0> d          -6.541   5.454  -2.366  0.00  0.00     0.269 S 
ATOM     14  C22 <0> d          -6.246   7.061  -3.051  0.00  0.00     0.095 A 
ATOM     15  O5  <0> d          -6.814   4.569  -3.444  0.00  0.00    -0.200 OA
ATOM     16  O6  <0> d          -7.401   5.613  -1.246  0.00  0.00    -0.200 OA
ATOM     17  C17 <0> d          -4.887   7.284  -2.794  0.00  0.00     0.056 A 
ATOM     18  C21 <0> d          -7.022   7.982  -3.696  0.00  0.00     0.026 A 
ATOM     19  C16 <0> d          -4.255   6.159  -2.091  0.00  0.00     0.269 A 
ATOM     20  C18 <0> d          -4.337   8.503  -3.227  0.00  0.00     0.018 A 
ATOM     21  O4  <0> d          -3.077   6.192  -1.792  0.00  0.00    -0.266 OA
ATOM     22  C19 <0> d          -5.122   9.427  -3.877  0.00  0.00     0.001 A 
ATOM     23  C20 <0> d          -6.463   9.179  -4.117  0.00  0.00     0.002 A 
ENDBRANCH  11  12
ENDBRANCH   8  11
ENDBRANCH   4   7
BRANCH   1  24
ATOM     24  S1  <0> d          -4.193   4.050   7.079  0.00  0.00     0.263 S 
ATOM     25  O1  <0> d          -2.842   3.890   7.489  0.00  0.00    -0.200 OA
ATOM     26  O2  <0> d          -4.922   5.247   7.309  0.00  0.00    -0.200 OA
BRANCH  24  27
ATOM     27  N1  <0> d          -5.052   2.828   7.794  0.00  0.00    -0.280 N 
ATOM     28  H7  <0> d          -5.902   3.018   8.221  0.00  0.00     0.179 HD
BRANCH  27  29
ATOM     29  C7  <0> d          -4.553   1.523   7.781  0.00  0.00     0.054 A 
ATOM     30  C2  <0> d          -5.104   0.575   6.929  0.00  0.00    -0.034 A 
ATOM     31  C1  <0> d          -6.242   0.952   6.016  0.00  0.00     0.050 C 
ATOM     32  C3  <0> d          -4.605  -0.713   6.916  0.00  0.00     0.009 A 
ATOM     33  C4  <0> d          -3.564  -1.061   7.758  0.00  0.00     0.001 A 
ATOM     34  C5  <0> d          -3.016  -0.121   8.611  0.00  0.00     0.009 A 
ATOM     35  C6  <0> d          -3.507   1.170   8.626  0.00  0.00    -0.034 A 
ATOM     36  C23 <0> d          -2.909   2.194   9.556  0.00  0.00     0.050 C 
ENDBRANCH  27  29
ENDBRANCH  24  27
ENDBRANCH   1  24
TORSDOF 6
