REMARK  4 active torsions:
REMARK  status: ('A' for Active; 'I' for Inactive)
REMARK    1  A    between atoms: N1_5  and  S1_8 
REMARK    2  A    between atoms: S1_8  and  N2_11 
REMARK    3  A    between atoms: N2_11  and  C7_12 
REMARK    4  A    between atoms: C13_18  and  N3_19 
ROOT
ATOM      1  N2  <0> d          -0.817  -5.169   1.546  0.00  0.00    -0.296 N 
ATOM      2  H15 <0> d          -1.533  -5.765   1.275  0.00  0.00     0.174 HD
ENDROOT
BRANCH   1   3
ATOM      3  S1  <0> d          -1.173  -3.668   2.148  0.00  0.00     0.317 S 
ATOM      4  O1  <0> d          -0.421  -3.521   3.344  0.00  0.00    -0.183 OA
ATOM      5  O2  <0> d          -2.589  -3.544   2.119  0.00  0.00    -0.183 OA
BRANCH   3   6
ATOM      6  N1  <0> d          -0.578  -2.556   1.075  0.00  0.00    -0.294 N 
ATOM      7  C4  <0> d          -1.409  -2.065  -0.032  0.00  0.00     0.137 C 
ATOM      8  C3  <0> d          -1.434  -0.533   0.011  0.00  0.00     0.025 C 
ATOM      9  C2  <0> d           0.002  -0.004   0.002  0.00  0.00    -0.015 C 
ATOM     10  C1  <0> d          -0.019   1.526   0.010  0.00  0.00     0.010 C 
ATOM     11  C6  <0> d           0.742  -0.511   1.242  0.00  0.00     0.025 C 
ATOM     12  C5  <0> d           0.791  -2.042   1.212  0.00  0.00     0.137 C 
ENDBRANCH   3   6
ENDBRANCH   1   3
BRANCH   1  13
ATOM     13  C7  <0> d           0.578  -5.596   1.421  0.00  0.00     0.124 C 
ATOM     14  C13 <0> d           0.725  -6.423   0.173  0.00  0.00     0.206 C 
ATOM     15  C12 <0> d           2.114  -6.142  -0.440  0.00  0.00     0.035 C 
ATOM     16  C11 <0> d           3.173  -6.882   0.229  0.00  0.00     0.002 C 
ATOM     17  C10 <0> d           3.311  -6.498   1.716  0.00  0.00     0.000 C 
ATOM     18  C9  <0> d           2.248  -7.222   2.497  0.00  0.00     0.002 C 
ATOM     19  C8  <0> d           0.977  -6.372   2.691  0.00  0.00     0.028 C 
BRANCH  14  20
ATOM     20  N3  <0> d          -0.322  -6.055  -0.789  0.00  0.00    -0.073 N 
ATOM     21  H26 <0> d          -0.235  -5.077  -1.023  0.00  0.00     0.274 HD
ATOM     22  H27 <0> d          -0.222  -6.611  -1.625  0.00  0.00     0.274 HD
ATOM     23  H28 <0> d          -1.229  -6.223  -0.380  0.00  0.00     0.274 HD
ENDBRANCH  14  20
ENDBRANCH   1  13
TORSDOF 4
