REMARK  5 active torsions:
REMARK  status: ('A' for Active; 'I' for Inactive)
REMARK    1  A    between atoms: C2_2  and  C4_4 
REMARK    2  A    between atoms: C4_4  and  C5_5 
REMARK    3  A    between atoms: C5_5  and  C6_6 
REMARK    4  A    between atoms: C5_5  and  N2_21 
REMARK    5  A    between atoms: C7_8  and  C9_11 
ROOT
ATOM      1  C6  <0> d          -2.825  -2.560  -0.234  0.00  0.00     0.106 A 
ATOM      2  N1  <0> d          -3.321  -3.086  -1.323  0.00  0.00    -0.243 NA
ATOM      3  C7  <0> d          -4.581  -3.494  -1.381  0.00  0.00     0.074 A 
ATOM      4  C8  <0> d          -5.327  -3.336  -0.243  0.00  0.00     0.084 A 
ATOM      5  S1  <0> d          -4.117  -2.598   0.844  0.00  0.00    -0.082 SA
ENDROOT
BRANCH   3   6
ATOM      6  C9  <0> d          -5.153  -4.091  -2.613  0.00  0.00    -0.004 A 
ATOM      7  C14 <0> d          -6.507  -4.413  -2.669  0.00  0.00     0.053 A 
ATOM      8  C13 <0> d          -7.040  -4.966  -3.821  0.00  0.00     0.103 A 
ATOM      9  C12 <0> d          -6.220  -5.206  -4.919  0.00  0.00     0.102 A 
ATOM     10  O1  <0> d          -8.365  -5.277  -3.860  0.00  0.00    -0.346 OA
ATOM     11  C11 <0> d          -4.870  -4.890  -4.859  0.00  0.00     0.040 A 
ATOM     12  O2  <0> d          -6.727  -5.749  -6.060  0.00  0.00    -0.346 OA
ATOM     13  C10 <0> d          -4.336  -4.337  -3.714  0.00  0.00     0.017 A 
ATOM     14  C16 <0> d          -7.998  -6.399  -5.954  0.00  0.00     0.202 C 
ATOM     15  C15 <0> d          -8.939  -5.488  -5.154  0.00  0.00     0.202 C 
ENDBRANCH   3   6
BRANCH   1  16
ATOM     16  C5  <0> d          -1.428  -2.048   0.003  0.00  0.00     0.242 C 
BRANCH  16  17
ATOM     17  C4  <0> d          -1.439  -0.518   0.008  0.00  0.00     0.043 C 
BRANCH  17  18
ATOM     18  C2  <0> d          -0.005   0.002   0.129  0.00  0.00    -0.020 C 
ATOM     19  C1  <0> d           0.784  -0.381  -1.125  0.00  0.00     0.009 C 
ATOM     20  C3  <0> d          -0.026   1.525   0.274  0.00  0.00     0.009 C 
ENDBRANCH  17  18
ENDBRANCH  16  17
BRANCH  16  21
ATOM     21  N2  <0> d          -0.940  -2.538   1.299  0.00  0.00    -0.069 N 
ATOM     22  H19 <0> d          -1.014  -3.544   1.327  0.00  0.00     0.275 HD
ATOM     23  H20 <0> d           0.025  -2.268   1.419  0.00  0.00     0.275 HD
ATOM     24  H21 <0> d          -1.495  -2.139   2.040  0.00  0.00     0.275 HD
ENDBRANCH  16  21
ENDBRANCH   1  16
TORSDOF 5
