REMARK  5 active torsions:
REMARK  status: ('A' for Active; 'I' for Inactive)
REMARK    1  A    between atoms: C2_2  and  C3_3 
REMARK    2  A    between atoms: C2_2  and  S1_12 
REMARK       I    between atoms: C3_3  and  N1_5 
REMARK    3  A    between atoms: N1_5  and  C4_6 
REMARK    4  A    between atoms: S1_12  and  C10_13 
REMARK    5  A    between atoms: C11_16  and  C12_18 
ROOT
ATOM      1  C10 <0> d          -0.166  -0.072   2.855  0.00  0.00     0.311 A 
ATOM      2  N2  <0> d          -1.521  -0.631   2.721  0.00  0.00    -0.273 N 
ATOM      3  N3  <0> d          -2.376   0.476   2.619  0.00  0.00    -0.150 NA
ATOM      4  C11 <0> d          -1.686   1.584   2.678  0.00  0.00     0.195 A 
ATOM      5  O2  <0> d          -0.356   1.350   2.820  0.00  0.00    -0.296 OA
ATOM      6  H18 <0> d          -1.771  -1.568   2.706  0.00  0.00     0.186 HD
ENDROOT
BRANCH   1   7
ATOM      7  S1  <0> d           0.879  -0.605   1.472  0.00  0.00    -0.101 SA
BRANCH   7   8
ATOM      8  C2  <0> d           0.002  -0.004   0.002  0.00  0.00     0.139 C 
ATOM      9  C1  <0> d          -0.019   1.526   0.010  0.00  0.00     0.031 C 
BRANCH   8  10
ATOM     10  C3  <0> d           0.707  -0.490  -1.238  0.00  0.00     0.231 C 
ATOM     11  O1  <0> d           1.864  -0.849  -1.176  0.00  0.00    -0.272 OA
ATOM     12  N1  <0> d           0.053  -0.526  -2.415  0.00  0.00    -0.355 N 
ATOM     13  H6  <0> d          -0.873  -0.239  -2.465  0.00  0.00     0.162 HD
BRANCH  12  14
ATOM     14  C4  <0> d           0.738  -0.999  -3.621  0.00  0.00     0.084 C 
ATOM     15  C9  <0> d          -0.292  -1.529  -4.619  0.00  0.00     0.025 C 
ATOM     16  C8  <0> d           0.424  -2.022  -5.878  0.00  0.00     0.002 C 
ATOM     17  C7  <0> d           1.198  -0.865  -6.511  0.00  0.00     0.000 C 
ATOM     18  C6  <0> d           2.229  -0.334  -5.513  0.00  0.00     0.002 C 
ATOM     19  C5  <0> d           1.513   0.159  -4.254  0.00  0.00     0.025 C 
ENDBRANCH  12  14
ENDBRANCH   8  10
ENDBRANCH   7   8
ENDBRANCH   1   7
BRANCH   4  20
ATOM     20  C12 <0> d          -2.252   2.865   2.604  0.00  0.00     0.026 A 
ATOM     21  C19 <0> d          -1.525   4.190   2.664  0.00  0.00     0.164 A 
ATOM     22  N4  <0> d          -2.558   5.224   2.542  0.00  0.00    -0.385 N 
ATOM     23  C18 <0> d          -3.739   4.648   2.433  0.00  0.00     0.039 A 
ATOM     24  H25 <0> d          -2.397   6.181   2.545  0.00  0.00     0.160 HD
ATOM     25  C13 <0> d          -3.603   3.183   2.466  0.00  0.00     0.003 A 
ATOM     26  C17 <0> d          -5.041   5.196   2.297  0.00  0.00     0.030 A 
ATOM     27  C14 <0> d          -4.764   2.388   2.362  0.00  0.00     0.014 A 
ATOM     28  C15 <0> d          -5.979   2.982   2.233  0.00  0.00     0.001 A 
ATOM     29  C16 <0> d          -6.113   4.372   2.202  0.00  0.00     0.002 A 
ENDBRANCH   4  20
TORSDOF 5
