REMARK  5 active torsions:
REMARK  status: ('A' for Active; 'I' for Inactive)
REMARK    1  A    between atoms: C2_2  and  C3_3 
REMARK    2  A    between atoms: C2_2  and  N4_17 
REMARK    3  A    between atoms: C3_3  and  C4_4 
REMARK    4  A    between atoms: C3_3  and  N3_10 
REMARK    5  A    between atoms: N3_10  and  C9_12 
ROOT
ATOM      1  C3  <0> d          -1.375  -0.799  -0.053  0.00  0.00     0.288 C 
ENDROOT
BRANCH   1   2
ATOM      2  C2  <0> d           0.020  -0.203  -0.249  0.00  0.00     0.217 C 
ATOM      3  C1  <0> d           0.010   1.269   0.169  0.00  0.00     0.042 C 
BRANCH   2   4
ATOM      4  N4  <0> d           0.988  -0.939   0.575  0.00  0.00    -0.073 N 
ATOM      5  H23 <0> d           0.725  -0.868   1.547  0.00  0.00     0.274 HD
ATOM      6  H24 <0> d           0.995  -1.910   0.300  0.00  0.00     0.274 HD
ATOM      7  H25 <0> d           1.908  -0.546   0.446  0.00  0.00     0.274 HD
ENDBRANCH   2   4
ENDBRANCH   1   2
BRANCH   1   8
ATOM      8  C4  <0> d          -1.330  -2.282  -0.321  0.00  0.00     0.013 A 
ATOM      9  C6  <0> d          -1.456  -3.262   0.604  0.00  0.00     0.122 A 
ATOM     10  N2  <0> d          -1.363  -4.446  -0.037  0.00  0.00    -0.285 N 
ATOM     11  N1  <0> d          -1.164  -4.185  -1.399  0.00  0.00    -0.185 NA
ATOM     12  C7  <0> d          -1.448  -5.770   0.583  0.00  0.00     0.179 C 
ATOM     13  C5  <0> d          -1.145  -2.888  -1.568  0.00  0.00     0.149 A 
ENDBRANCH   1   8
BRANCH   1  14
ATOM     14  N3  <0> d          -2.315  -0.162  -0.985  0.00  0.00     0.100 N 
ATOM     15  C8  <0> d          -1.669   0.123  -2.273  0.00  0.00     0.311 C 
BRANCH  14  16
ATOM     16  C9  <0> d          -2.887   1.059  -0.402  0.00  0.00     0.223 C 
ATOM     17  C13 <0> d          -3.631   0.734   0.910  0.00  0.00     0.036 C 
ATOM     18  C12 <0> d          -4.879   1.633   0.942  0.00  0.00     0.002 C 
ATOM     19  C11 <0> d          -4.850   2.474  -0.351  0.00  0.00     0.002 C 
ATOM     20  C10 <0> d          -3.986   1.639  -1.328  0.00  0.00     0.036 C 
ENDBRANCH  14  16
ENDBRANCH   1  14
TORSDOF 5
