REMARK  3 active torsions:
REMARK  status: ('A' for Active; 'I' for Inactive)
REMARK    1  A    between atoms: C2_2  and  C3_3 
REMARK    2  A    between atoms: C2_2  and  C12_15 
REMARK    3  A    between atoms: C3_3  and  N1_4 
ROOT
ATOM      1  N1  <0> d           2.148  -0.104   1.172  0.00  0.00    -0.287 N 
ATOM      2  C4  <0> d           3.093  -0.856   0.592  0.00  0.00     0.227 A 
ATOM      3  O1  <0> d           2.911  -1.934   0.068  0.00  0.00    -0.273 OA
ATOM      4  C5  <0> d           4.427  -0.144   0.695  0.00  0.00     0.122 A 
ATOM      5  C6  <0> d           4.077   1.151   1.438  0.00  0.00     0.050 A 
ATOM      6  C7  <0> d           2.595   1.056   1.678  0.00  0.00     0.235 A 
ATOM      7  O2  <0> d           1.916   1.888   2.240  0.00  0.00    -0.272 OA
ATOM      8  C8  <0> d           4.855   1.254   2.756  0.00  0.00     0.020 C 
ATOM      9  C9  <0> d           6.049   2.183   2.413  0.00  0.00     0.001 C 
ATOM     10  C10 <0> d           5.418   3.213   1.443  0.00  0.00     0.001 C 
ATOM     11  C11 <0> d           4.428   2.381   0.598  0.00  0.00     0.020 C 
ENDROOT
BRANCH   1  12
ATOM     12  C3  <0> d           0.742  -0.511   1.242  0.00  0.00     0.146 C 
BRANCH  12  13
ATOM     13  C2  <0> d           0.002  -0.004   0.002  0.00  0.00     0.061 C 
ATOM     14  C1  <0> d          -0.019   1.526   0.010  0.00  0.00     0.019 C 
BRANCH  13  15
ATOM     15  C12 <0> d          -1.412  -0.526   0.013  0.00  0.00     0.076 C 
ATOM     16  S1  <0> d          -1.986  -1.254   1.316  0.00  0.00    -0.065 SA
ATOM     17  N2  <0> d          -2.193  -0.379  -1.076  0.00  0.00    -0.393 N 
ATOM     18  H17 <0> d          -1.845   0.063  -1.866  0.00  0.00     0.156 HD
ATOM     19  H18 <0> d          -3.103  -0.714  -1.069  0.00  0.00     0.156 HD
ENDBRANCH  13  15
ENDBRANCH  12  13
ENDBRANCH   1  12
TORSDOF 3
