REMARK  4 active torsions:
REMARK  status: ('A' for Active; 'I' for Inactive)
REMARK    1  A    between atoms: C4_4  and  C12_14 
REMARK    2  A    between atoms: N1_6  and  C6_7 
REMARK    3  A    between atoms: C6_7  and  C7_8 
REMARK    4  A    between atoms: N3_21  and  C17_24 
ROOT
ATOM      1  C12 <0> d          -4.242   5.835   3.568  0.00  0.00     0.036 C 
ATOM      2  C13 <0> d          -4.711   5.131   2.471  0.00  0.00     0.101 A 
ATOM      3  C14 <0> d          -5.593   3.960   2.628  0.00  0.00     0.265 A 
ATOM      4  O2  <0> d          -5.934   3.578   3.731  0.00  0.00    -0.267 OA
ATOM      5  N2  <0> d          -6.011   3.324   1.514  0.00  0.00    -0.274 N 
ATOM      6  C15 <0> d          -5.646   3.737   0.292  0.00  0.00     0.332 A 
ATOM      7  O3  <0> d          -6.061   3.123  -0.670  0.00  0.00    -0.246 OA
ATOM      8  N3  <0> d          -4.844   4.789   0.076  0.00  0.00    -0.261 N 
ATOM      9  C16 <0> d          -4.350   5.521   1.095  0.00  0.00     0.267 A 
ATOM     10  O4  <0> d          -3.626   6.476   0.886  0.00  0.00    -0.267 OA
ATOM     11  H18 <0> d          -6.592   2.552   1.599  0.00  0.00     0.173 HD
ENDROOT
BRANCH   1  12
ATOM     12  C4  <0> d          -3.252   6.833   3.399  0.00  0.00    -0.011 A 
ATOM     13  C3  <0> d          -2.028   6.740   2.590  0.00  0.00     0.038 A 
ATOM     14  C2  <0> d          -1.397   7.918   2.721  0.00  0.00     0.009 A 
ATOM     15  C1  <0> d          -0.092   8.286   2.065  0.00  0.00     0.068 C 
ATOM     16  N1  <0> d          -2.121   8.727   3.550  0.00  0.00    -0.351 N 
ATOM     17  C5  <0> d          -3.234   8.099   3.967  0.00  0.00     0.018 A 
ATOM     18  C11 <0> d          -4.279   8.669   4.891  0.00  0.00     0.069 C 
BRANCH  16  19
ATOM     19  C6  <0> d          -1.738  10.088   3.932  0.00  0.00     0.160 C 
BRANCH  19  20
ATOM     20  C7  <0> d          -0.885  10.042   5.201  0.00  0.00     0.139 C 
ATOM     21  O1  <0> d          -1.682   9.589   6.309  0.00  0.00    -0.384 OA
ATOM     22  C10 <0> d          -1.204  10.284   7.482  0.00  0.00     0.168 C 
ATOM     23  C9  <0> d          -0.930  11.721   6.968  0.00  0.00     0.029 C 
ATOM     24  C8  <0> d          -0.380  11.456   5.545  0.00  0.00     0.035 C 
ENDBRANCH  19  20
ENDBRANCH  16  19
ENDBRANCH   1  12
BRANCH   8  25
ATOM     25  C17 <0> d          -4.500   5.155  -1.300  0.00  0.00     0.098 C 
ATOM     26  C21 <0> d          -5.775   5.490  -2.114  0.00  0.00     0.026 C 
ATOM     27  C20 <0> d          -5.363   5.249  -3.580  0.00  0.00     0.002 C 
ATOM     28  C19 <0> d          -4.182   4.263  -3.548  0.00  0.00     0.002 C 
ATOM     29  C18 <0> d          -3.917   3.939  -2.063  0.00  0.00     0.026 C 
ENDBRANCH   8  25
TORSDOF 4
