REMARK  5 active torsions:
REMARK  status: ('A' for Active; 'I' for Inactive)
REMARK    1  A    between atoms: C3_4  and  S1_7 
REMARK    2  A    between atoms: S1_7  and  C4_8 
REMARK    3  A    between atoms: C4_8  and  C5_9 
REMARK       I    between atoms: C5_9  and  N4_11 
REMARK    4  A    between atoms: N4_11  and  N5_12 
REMARK    5  A    between atoms: C6_13  and  C14_23 
ROOT
ATOM      1  N5  <0> d          -5.927   4.472  -7.818  0.00  0.00    -0.226 N 
ATOM      2  C6  <0> d          -6.305   3.322  -8.639  0.00  0.00     0.243 C 
ATOM      3  N6  <0> d          -6.913   3.773  -9.897  0.00  0.00    -0.362 N 
ATOM      4  C7  <0> d          -7.851   4.799  -9.851  0.00  0.00     0.045 A 
ATOM      5  C8  <0> d          -8.877   4.895 -10.775  0.00  0.00     0.030 A 
ATOM      6  C9  <0> d          -9.785   5.933 -10.682  0.00  0.00     0.002 A 
ATOM      7  C10 <0> d          -9.676   6.876  -9.672  0.00  0.00     0.001 A 
ATOM      8  C11 <0> d          -8.659   6.795  -8.744  0.00  0.00     0.019 A 
ATOM      9  C12 <0> d          -7.735   5.756  -8.827  0.00  0.00     0.060 A 
ATOM     10  C13 <0> d          -6.627   5.624  -7.864  0.00  0.00     0.276 C 
ATOM     11  O2  <0> d          -6.344   6.546  -7.122  0.00  0.00    -0.266 OA
ATOM     12  H8  <0> d          -6.666   3.365 -10.742  0.00  0.00     0.162 HD
ENDROOT
BRANCH   1  13
ATOM     13  N4  <0> d          -4.822   4.372  -6.963  0.00  0.00    -0.262 N 
ATOM     14  C5  <0> d          -5.006   4.204  -5.639  0.00  0.00     0.246 C 
ATOM     15  O1  <0> d          -6.127   4.227  -5.175  0.00  0.00    -0.271 OA
ATOM     16  H7  <0> d          -3.923   4.425  -7.325  0.00  0.00     0.190 HD
BRANCH  14  17
ATOM     17  C4  <0> d          -3.821   3.986  -4.734  0.00  0.00     0.187 C 
BRANCH  17  18
ATOM     18  S1  <0> d          -4.393   3.794  -3.024  0.00  0.00    -0.079 SA
BRANCH  18  19
ATOM     19  C3  <0> d          -2.910   3.550  -2.103  0.00  0.00     0.211 A 
ATOM     20  N1  <0> d          -2.814   3.356  -0.755  0.00  0.00    -0.205 NA
ATOM     21  C2  <0> d          -1.479   3.215  -0.495  0.00  0.00     0.147 A 
ATOM     22  C1  <0> d          -0.851   2.979   0.854  0.00  0.00     0.095 C 
ATOM     23  N3  <0> d          -0.849   3.328  -1.631  0.00  0.00    -0.133 NA
ATOM     24  N2  <0> d          -1.689   3.521  -2.584  0.00  0.00    -0.121 NA
ENDBRANCH  18  19
ENDBRANCH  17  18
ENDBRANCH  14  17
ENDBRANCH   1  13
BRANCH   2  25
ATOM     25  C14 <0> d          -7.298   2.475  -7.885  0.00  0.00    -0.014 A 
ATOM     26  C19 <0> d          -8.454   3.045  -7.385  0.00  0.00     0.011 A 
ATOM     27  C18 <0> d          -9.366   2.267  -6.697  0.00  0.00     0.001 A 
ATOM     28  C17 <0> d          -9.118   0.921  -6.502  0.00  0.00     0.000 A 
ATOM     29  C16 <0> d          -7.960   0.352  -6.997  0.00  0.00     0.001 A 
ATOM     30  C15 <0> d          -7.049   1.129  -7.689  0.00  0.00     0.011 A 
ENDBRANCH   2  25
TORSDOF 5
