REMARK  3 active torsions:
REMARK  status: ('A' for Active; 'I' for Inactive)
REMARK    1  A    between atoms: C5_5  and  N1_9 
REMARK    2  A    between atoms: C9_11  and  C12_15 
REMARK    3  A    between atoms: C13_18  and  N4_20 
REMARK       I    between atoms: N4_20  and  C14_21 
REMARK       I    between atoms: C14_21  and  N5_23 
ROOT
ATOM      1  N1  <0> d           1.333   9.550   1.284  0.00  0.00    -0.317 N 
ATOM      2  C8  <0> d           1.653   8.167   1.656  0.00  0.00     0.144 C 
ATOM      3  C9  <0> d           2.127   7.488   0.352  0.00  0.00     0.074 C 
ATOM      4  C10 <0> d           1.421   8.344  -0.725  0.00  0.00     0.116 C 
ATOM      5  C11 <0> d           1.191   9.677  -0.047  0.00  0.00     0.225 C 
ATOM      6  O1  <0> d           0.920  10.711  -0.621  0.00  0.00    -0.273 OA
ENDROOT
BRANCH   3   7
ATOM      7  C12 <0> d           1.665   6.055   0.291  0.00  0.00     0.107 A 
ATOM      8  S1  <0> d           2.614   4.549   0.112  0.00  0.00    -0.033 SA
ATOM      9  C13 <0> d           1.260   3.458   0.144  0.00  0.00     0.197 A 
ATOM     10  N3  <0> d           0.259   4.309   0.289  0.00  0.00    -0.123 NA
ATOM     11  N2  <0> d           0.448   5.555   0.360  0.00  0.00    -0.144 NA
BRANCH   9  12
ATOM     12  N4  <0> d           1.238   2.071   0.051  0.00  0.00    -0.286 N 
ATOM     13  C14 <0> d           0.064   1.410   0.105  0.00  0.00     0.323 C 
ATOM     14  O2  <0> d          -0.981   2.030   0.138  0.00  0.00    -0.247 OA
ATOM     15  N5  <0> d           0.049   0.063   0.117  0.00  0.00    -0.343 N 
ATOM     16  C15 <0> d          -1.218  -0.654   0.284  0.00  0.00     0.154 C 
ATOM     17  C16 <0> d           1.299  -0.685  -0.036  0.00  0.00     0.154 C 
ATOM     18  H12 <0> d           2.178   1.512  -0.068  0.00  0.00     0.172 HD
ENDBRANCH   9  12
ENDBRANCH   3   7
BRANCH   1  19
ATOM     19  C5  <0> d           1.194  10.602   2.196  0.00  0.00     0.038 A 
ATOM     20  C4  <0> d           1.241  10.349   3.561  0.00  0.00     0.030 A 
ATOM     21  C3  <0> d           1.105  11.388   4.460  0.00  0.00     0.011 A 
ATOM     22  C2  <0> d           0.920  12.680   4.003  0.00  0.00    -0.040 A 
ATOM     23  C1  <0> d           0.772  13.812   4.987  0.00  0.00     0.050 C 
ATOM     24  C7  <0> d           0.873  12.936   2.644  0.00  0.00     0.042 A 
ATOM     25  C6  <0> d           1.014  11.900   1.739  0.00  0.00     0.054 A 
ATOM     26 Cl1  <0> d           0.641  14.560   2.074  0.00  0.00    -0.084 Cl
ENDBRANCH   1  19
TORSDOF 3
