REMARK  6 active torsions:
REMARK  status: ('A' for Active; 'I' for Inactive)
REMARK    1  A    between atoms: C3_3  and  C5_7 
REMARK    2  A    between atoms: C5_7  and  N2_8 
REMARK    3  A    between atoms: N2_8  and  C7_10 
REMARK    4  A    between atoms: C7_10  and  C9_12 
REMARK       I    between atoms: C9_12  and  N3_14 
REMARK       I    between atoms: N3_14  and  C10_15 
REMARK       I    between atoms: C10_15  and  N4_17 
REMARK    5  A    between atoms: N4_17  and  C11_18 
REMARK    6  A    between atoms: C11_18  and  C12_19 
ROOT
ATOM      1  C9  <0> d           2.832   0.707  -4.893  0.00  0.00     0.258 C 
ATOM      2  O1  <0> d           3.704   0.135  -4.274  0.00  0.00    -0.271 OA
ATOM      3  N3  <0> d           3.136   1.370  -6.027  0.00  0.00    -0.277 N 
ATOM      4  C10 <0> d           4.407   1.397  -6.472  0.00  0.00     0.323 C 
ATOM      5  O2  <0> d           5.281   0.823  -5.851  0.00  0.00    -0.247 OA
ATOM      6  N4  <0> d           4.711   2.060  -7.605  0.00  0.00    -0.334 N 
ATOM      7  H14 <0> d           2.439   1.828  -6.522  0.00  0.00     0.173 HD
ATOM      8  H15 <0> d           4.014   2.518  -8.101  0.00  0.00     0.164 HD
ENDROOT
BRANCH   1   9
ATOM      9  C7  <0> d           1.410   0.677  -4.395  0.00  0.00     0.310 C 
ATOM     10  C8  <0> d           1.051   2.037  -3.794  0.00  0.00     0.053 C 
BRANCH   9  11
ATOM     11  N2  <0> d           1.273  -0.364  -3.368  0.00  0.00     0.102 N 
ATOM     12  C6  <0> d          -0.140  -0.695  -3.139  0.00  0.00     0.311 C 
BRANCH  11  13
ATOM     13  C5  <0> d           1.928   0.041  -2.117  0.00  0.00     0.321 C 
BRANCH  13  14
ATOM     14  C3  <0> d           1.983  -1.133  -1.175  0.00  0.00     0.036 A 
ATOM     15  C2  <0> d           2.942  -2.084  -1.029  0.00  0.00     0.045 A 
ATOM     16  C1  <0> d           4.189  -2.080  -1.874  0.00  0.00     0.071 C 
ATOM     17  N1  <0> d           2.728  -3.013  -0.119  0.00  0.00    -0.258 NA
ATOM     18  C4  <0> d           1.645  -3.010   0.617  0.00  0.00     0.166 A 
ATOM     19  S1  <0> d           0.805  -1.662   0.059  0.00  0.00    -0.083 SA
ENDBRANCH  13  14
ENDBRANCH  11  13
ENDBRANCH   9  11
ENDBRANCH   1   9
BRANCH   6  20
ATOM     20  C11 <0> d           6.093   2.090  -8.089  0.00  0.00     0.241 C 
BRANCH  20  21
ATOM     21  C12 <0> d           6.163   2.903  -9.383  0.00  0.00     0.403 C 
ATOM     22  F1  <0> d           5.728   4.209  -9.137  0.00  0.00    -0.169 F 
ATOM     23  F2  <0> d           7.484   2.931  -9.845  0.00  0.00    -0.169 F 
ATOM     24  F3  <0> d           5.343   2.312 -10.350  0.00  0.00    -0.169 F 
ENDBRANCH  20  21
ENDBRANCH   6  20
TORSDOF 6
