REMARK  6 active torsions:
REMARK  status: ('A' for Active; 'I' for Inactive)
REMARK    1  A    between atoms: N1_2  and  C2_3 
REMARK    2  A    between atoms: C2_3  and  C3_4 
REMARK    3  A    between atoms: C6_7  and  C9_10 
REMARK    4  A    between atoms: C9_10  and  N2_11 
REMARK    5  A    between atoms: N2_11  and  C11_13 
REMARK    6  A    between atoms: C11_13  and  C12_14 
ROOT
ATOM      1  C9  <0> d          -1.298  -6.291  -0.019  0.00  0.00     0.273 C 
ENDROOT
BRANCH   1   2
ATOM      2  C6  <0> d          -1.318  -4.784  -0.011  0.00  0.00    -0.033 A 
ATOM      3  C5  <0> d          -1.333  -4.086  -1.204  0.00  0.00     0.009 A 
ATOM      4  C4  <0> d          -1.352  -2.704  -1.197  0.00  0.00     0.009 A 
ATOM      5  C3  <0> d          -1.356  -2.019   0.004  0.00  0.00    -0.033 A 
ATOM      6  C8  <0> d          -1.335  -2.717   1.197  0.00  0.00     0.009 A 
ATOM      7  C7  <0> d          -1.320  -4.099   1.190  0.00  0.00     0.009 A 
BRANCH   5   8
ATOM      8  C2  <0> d          -1.376  -0.512   0.012  0.00  0.00     0.270 C 
BRANCH   8   9
ATOM      9  N1  <0> d           0.002  -0.004   0.002  0.00  0.00    -0.075 N 
ATOM     10  C1  <0> d          -0.018   1.465   0.010  0.00  0.00     0.267 C 
ATOM     11  H4  <0> d           0.474  -0.330  -0.828  0.00  0.00     0.277 HD
ATOM     12  H22 <0> d           0.490  -0.338   0.820  0.00  0.00     0.277 HD
ENDBRANCH   8   9
ENDBRANCH   5   8
ENDBRANCH   1   2
BRANCH   1  13
ATOM     13  N2  <0> d           0.093  -6.762  -0.030  0.00  0.00    -0.067 N 
ATOM     14  C10 <0> d           0.752  -6.372   1.224  0.00  0.00     0.270 C 
ATOM     15  H23 <0> d           0.582  -6.349  -0.809  0.00  0.00     0.280 HD
BRANCH  13  16
ATOM     16  C11 <0> d           0.113  -8.226  -0.158  0.00  0.00     0.273 C 
BRANCH  16  17
ATOM     17  C12 <0> d           1.537  -8.699  -0.292  0.00  0.00    -0.033 A 
ATOM     18  C17 <0> d           2.268  -9.019   0.837  0.00  0.00     0.010 A 
ATOM     19  C16 <0> d           3.573  -9.458   0.714  0.00  0.00     0.019 A 
ATOM     20  C15 <0> d           4.151  -9.566  -0.538  0.00  0.00     0.011 A 
ATOM     21  C14 <0> d           3.422  -9.240  -1.667  0.00  0.00     0.019 A 
ATOM     22 Br1  <0> d           5.939 -10.159  -0.706  0.00  0.00    -0.051 Br
ATOM     23  C13 <0> d           2.115  -8.806  -1.544  0.00  0.00     0.010 A 
ENDBRANCH  16  17
ENDBRANCH  13  16
ENDBRANCH   1  13
TORSDOF 6
