REMARK  3 active torsions:
REMARK  status: ('A' for Active; 'I' for Inactive)
REMARK    1  A    between atoms: N1_7  and  S1_8 
REMARK    2  A    between atoms: S1_8  and  C6_11 
REMARK    3  A    between atoms: C8_13  and  C10_17 
REMARK       I    between atoms: C10_17  and  N3_19 
ROOT
ATOM      1  C6  <0> d           0.215   0.458   3.628  0.00  0.00     0.097 A 
ATOM      2  C7  <0> d          -0.920   1.260   3.783  0.00  0.00     0.062 A 
ATOM      3  C8  <0> d          -1.535   0.870   4.954  0.00  0.00     0.102 A 
ATOM      4  N2  <0> d          -0.785  -0.149   5.496  0.00  0.00    -0.360 N 
ATOM      5  H2  <0> d          -0.981  -0.618   6.322  0.00  0.00     0.165 HD
ATOM      6  C9  <0> d           0.269  -0.393   4.680  0.00  0.00     0.113 A 
ENDROOT
BRANCH   1   7
ATOM      7  S1  <0> d           1.366   0.537   2.296  0.00  0.00     0.262 S 
ATOM      8  O2  <0> d           2.586  -0.006   2.782  0.00  0.00    -0.200 OA
ATOM      9  O3  <0> d           1.277   1.849   1.759  0.00  0.00    -0.200 OA
BRANCH   7  10
ATOM     10  N1  <0> d           0.824  -0.495   1.119  0.00  0.00    -0.298 N 
ATOM     11  C2  <0> d          -0.240  -0.089   0.187  0.00  0.00     0.115 C 
ATOM     12  C1  <0> d          -0.519   1.407   0.344  0.00  0.00     0.035 C 
ATOM     13  C3  <0> d           0.232  -0.379  -1.242  0.00  0.00     0.193 C 
ATOM     14  O1  <0> d           0.666  -1.738  -1.328  0.00  0.00    -0.387 OA
ATOM     15  C4  <0> d           1.786  -2.049  -0.494  0.00  0.00     0.188 C 
ATOM     16  C5  <0> d           1.393  -1.844   0.974  0.00  0.00     0.162 C 
ENDBRANCH   7  10
ENDBRANCH   1   7
BRANCH   3  17
ATOM     17  C10 <0> d          -2.764   1.437   5.519  0.00  0.00     0.270 C 
ATOM     18  O4  <0> d          -3.338   2.341   4.941  0.00  0.00    -0.266 OA
ATOM     19  N3  <0> d          -3.257   0.957   6.677  0.00  0.00    -0.347 N 
ATOM     20  C14 <0> d          -4.477   1.432   7.354  0.00  0.00     0.126 C 
ATOM     21  C11 <0> d          -2.664  -0.123   7.479  0.00  0.00     0.126 C 
ATOM     22  C13 <0> d          -4.941   0.232   8.220  0.00  0.00     0.021 C 
ATOM     23  C12 <0> d          -3.583  -0.347   8.698  0.00  0.00     0.021 C 
ENDBRANCH   3  17
TORSDOF 3
