REMARK  3 active torsions:
REMARK  status: ('A' for Active; 'I' for Inactive)
REMARK    1  A    between atoms: C4_4  and  C7_8 
REMARK    2  A    between atoms: C9_10  and  N3_25 
REMARK    3  A    between atoms: N1_11  and  C16_19 
ROOT
ATOM      1  C7  <0> d           4.724  -0.278  -0.864  0.00  0.00     0.106 C 
ATOM      2  C8  <0> d           4.722   1.182  -0.516  0.00  0.00     0.079 C 
ATOM      3  C9  <0> d           3.582   1.808  -0.132  0.00  0.00     0.124 C 
ATOM      4  N1  <0> d           2.403   1.104  -0.036  0.00  0.00    -0.299 N 
ATOM      5  C10 <0> d           2.415  -0.262   0.061  0.00  0.00     0.030 C 
ATOM      6  C11 <0> d           3.500  -0.970  -0.320  0.00  0.00     0.025 C 
ATOM      7  C12 <0> d           3.520  -2.372  -0.227  0.00  0.00     0.158 C 
ATOM      8  O1  <0> d           4.519  -2.978  -0.563  0.00  0.00    -0.293 OA
ATOM      9  C13 <0> d           2.329  -3.137   0.281  0.00  0.00     0.084 C 
ATOM     10  C14 <0> d           1.056  -2.340  -0.026  0.00  0.00     0.014 C 
ATOM     11  C15 <0> d           1.190  -0.953   0.608  0.00  0.00     0.059 C 
ATOM     12  C21 <0> d           5.943   1.926  -0.596  0.00  0.00     0.100 C 
ATOM     13  N4  <0> d           6.912   2.517  -0.659  0.00  0.00    -0.191 NA
ENDROOT
BRANCH   1  14
ATOM     14  C4  <0> d           4.752  -0.428  -2.363  0.00  0.00    -0.030 A 
ATOM     15  C3  <0> d           3.719   0.068  -3.137  0.00  0.00     0.023 A 
ATOM     16  C2  <0> d           3.775  -0.084  -4.483  0.00  0.00    -0.020 A 
ATOM     17  C1  <0> d           2.787   0.362  -5.529  0.00  0.00     0.056 C 
ATOM     18  S1  <0> d           5.322  -0.950  -4.693  0.00  0.00    -0.100 SA
ATOM     19  C5  <0> d           5.793  -1.046  -2.974  0.00  0.00    -0.014 A 
ATOM     20  C6  <0> d           7.026  -1.657  -2.360  0.00  0.00     0.057 C 
ENDBRANCH   1  14
BRANCH   3  21
ATOM     21  N3  <0> d           3.607   3.150   0.167  0.00  0.00    -0.384 N 
ATOM     22  H19 <0> d           2.817   3.580   0.530  0.00  0.00     0.157 HD
ATOM     23  H20 <0> d           4.414   3.666   0.016  0.00  0.00     0.157 HD
ENDBRANCH   3  21
BRANCH   4  24
ATOM     24  C16 <0> d           1.182   1.789  -0.044  0.00  0.00     0.058 A 
ATOM     25  C20 <0> d           0.523   2.040  -1.240  0.00  0.00     0.146 A 
ATOM     26  N2  <0> d          -0.624   2.689  -1.252  0.00  0.00    -0.271 NA
ATOM     27  C19 <0> d          -1.194   3.114  -0.141  0.00  0.00     0.116 A 
ATOM     28  C18 <0> d          -0.598   2.902   1.089  0.00  0.00     0.021 A 
ATOM     29  C17 <0> d           0.611   2.229   1.148  0.00  0.00     0.033 A 
ENDBRANCH   4  24
TORSDOF 3
