REMARK  4 active torsions:
REMARK  status: ('A' for Active; 'I' for Inactive)
REMARK    1  A    between atoms: S1_2  and  N1_5 
REMARK    2  A    between atoms: N1_5  and  C2_6 
REMARK    3  A    between atoms: C6_11  and  S2_12 
REMARK    4  A    between atoms: S2_12  and  C7_15 
ROOT
ATOM      1  C2  <0> d           2.532   0.387  -1.673  0.00  0.00     0.067 A 
ATOM      2  C3  <0> d           3.546   0.607  -0.740  0.00  0.00     0.051 A 
ATOM      3  C4  <0> d           4.838   0.788  -1.185  0.00  0.00     0.118 A 
ATOM      4  N2  <0> d           5.121   0.756  -2.474  0.00  0.00    -0.271 NA
ATOM      5  C5  <0> d           4.190   0.551  -3.387  0.00  0.00     0.142 A 
ATOM      6  C6  <0> d           2.874   0.355  -3.024  0.00  0.00     0.108 A 
ENDROOT
BRANCH   6   7
ATOM      7  S2  <0> d           1.641   0.075  -4.251  0.00  0.00     0.210 S 
ATOM      8  O3  <0> d           2.296   0.148  -5.510  0.00  0.00    -0.217 OA
ATOM      9  O4  <0> d           0.911  -1.072  -3.838  0.00  0.00    -0.217 OA
BRANCH   7  10
ATOM     10  C7  <0> d           0.522   1.435  -4.186  0.00  0.00     0.064 A 
ATOM     11  C12 <0> d           0.820   2.607  -4.854  0.00  0.00     0.024 A 
ATOM     12  C11 <0> d          -0.057   3.674  -4.803  0.00  0.00     0.002 A 
ATOM     13  C10 <0> d          -1.233   3.568  -4.083  0.00  0.00     0.000 A 
ATOM     14  C9  <0> d          -1.531   2.395  -3.415  0.00  0.00     0.002 A 
ATOM     15  C8  <0> d          -0.656   1.326  -3.471  0.00  0.00     0.024 A 
ENDBRANCH   7  10
ENDBRANCH   6   7
BRANCH   1  16
ATOM     16  N1  <0> d           1.215   0.199  -1.264  0.00  0.00    -0.283 N 
ATOM     17  H4  <0> d           0.641  -0.417  -1.746  0.00  0.00     0.178 HD
BRANCH  16  18
ATOM     18  S1  <0> d           0.627   1.028   0.043  0.00  0.00     0.227 S 
ATOM     19  C1  <0> d           0.655   2.771  -0.459  0.00  0.00     0.186 C 
ATOM     20  O1  <0> d           1.578   0.800   1.074  0.00  0.00    -0.206 OA
ATOM     21  O2  <0> d          -0.714   0.580   0.183  0.00  0.00    -0.206 OA
ENDBRANCH  16  18
ENDBRANCH   1  16
TORSDOF 4
