REMARK  3 active torsions:
REMARK  status: ('A' for Active; 'I' for Inactive)
REMARK    1  A    between atoms: C3_4  and  C5_7 
REMARK    2  A    between atoms: C5_7  and  N2_8 
REMARK    3  A    between atoms: N2_8  and  C6_9 
ROOT
ATOM      1  C6  <0> d          -3.584  -4.249   1.375  0.00  0.00     0.186 C 
ATOM      2  C7  <0> d          -4.773  -3.603   0.661  0.00  0.00     0.038 C 
ATOM      3  C8  <0> d          -5.955  -4.574   0.658  0.00  0.00     0.070 C 
ATOM      4  C9  <0> d          -6.341  -4.911   2.100  0.00  0.00     0.164 C 
ATOM      5  C10 <0> d          -5.152  -5.552   2.818  0.00  0.00     0.070 C 
ATOM      6  C11 <0> d          -3.971  -4.579   2.818  0.00  0.00     0.038 C 
ATOM      7  O1  <0> d          -6.720  -3.706   2.786  0.00  0.00    -0.353 OA
ATOM      8  C12 <0> d          -8.163  -3.657   2.676  0.00  0.00     0.197 C 
ATOM      9  C13 <0> d          -8.538  -5.156   2.785  0.00  0.00     0.197 C 
ATOM     10  O2  <0> d          -7.452  -5.815   2.103  0.00  0.00    -0.353 OA
ENDROOT
BRANCH   1  11
ATOM     11  N2  <0> d          -2.448  -3.317   1.375  0.00  0.00    -0.066 N 
ATOM     12  H7  <0> d          -1.691  -3.709   1.915  0.00  0.00     0.278 HD
ATOM     13  H21 <0> d          -2.733  -2.439   1.783  0.00  0.00     0.278 HD
BRANCH  11  14
ATOM     14  C5  <0> d          -1.999  -3.093  -0.006  0.00  0.00     0.292 C 
BRANCH  14  15
ATOM     15  C3  <0> d          -0.834  -2.137  -0.006  0.00  0.00     0.067 A 
ATOM     16  N1  <0> d          -1.013  -0.832   0.002  0.00  0.00    -0.249 NA
ATOM     17  C2  <0> d           0.002  -0.004   0.002  0.00  0.00     0.071 A 
ATOM     18  C1  <0> d          -0.018   1.503   0.010  0.00  0.00     0.078 C 
ATOM     19  S1  <0> d           1.335  -1.032  -0.017  0.00  0.00    -0.085 SA
ATOM     20  C4  <0> d           0.449  -2.582  -0.014  0.00  0.00     0.080 A 
ENDBRANCH  14  15
ENDBRANCH  11  14
ENDBRANCH   1  11
TORSDOF 3
