REMARK  6 active torsions:
REMARK  status: ('A' for Active; 'I' for Inactive)
REMARK    1  A    between atoms: N4_6  and  C3_7 
REMARK    2  A    between atoms: C7_11  and  N5_13 
REMARK       I    between atoms: N5_13  and  C9_14 
REMARK    3  A    between atoms: C9_14  and  C10_16 
REMARK       I    between atoms: C10_16  and  N6_18 
REMARK    4  A    between atoms: N6_18  and  C11_19 
REMARK    5  A    between atoms: C11_19  and  C12_20 
REMARK    6  A    between atoms: C12_20  and  N7_22 
ROOT
ATOM      1  N5  <0> d          -1.714  -1.736   5.875  0.00  0.00    -0.319 N 
ATOM      2  C9  <0> d          -1.733  -1.280   7.143  0.00  0.00     0.313 C 
ATOM      3  O1  <0> d          -1.468  -0.118   7.373  0.00  0.00    -0.262 OA
ATOM      4  H10 <0> d          -1.980  -2.649   5.684  0.00  0.00     0.169 HD
ENDROOT
BRANCH   2   5
ATOM      5  C10 <0> d          -2.080  -2.203   8.264  0.00  0.00     0.309 C 
ATOM      6  O2  <0> d          -2.345  -3.365   8.033  0.00  0.00    -0.262 OA
ATOM      7  N6  <0> d          -2.099  -1.746   9.532  0.00  0.00    -0.351 N 
ATOM      8  H11 <0> d          -1.888  -0.818   9.716  0.00  0.00     0.162 HD
BRANCH   7   9
ATOM      9  C11 <0> d          -2.440  -2.652  10.632  0.00  0.00     0.155 C 
BRANCH   9  10
ATOM     10  C12 <0> d          -2.227  -1.936  11.967  0.00  0.00     0.202 C 
ATOM     11  C13 <0> d          -2.803  -2.788  13.100  0.00  0.00     0.042 C 
BRANCH  10  12
ATOM     12  N7  <0> d          -0.789  -1.733  12.189  0.00  0.00    -0.062 N 
ATOM     13  C18 <0> d          -0.268  -0.796  11.187  0.00  0.00     0.184 C 
ATOM     14  C17 <0> d           1.211  -0.517  11.464  0.00  0.00     0.033 C 
ATOM     15  C19 <0> d          -1.055   0.515  11.257  0.00  0.00     0.040 C 
ATOM     16  C16 <0> d           1.994  -1.831  11.392  0.00  0.00     0.004 C 
ATOM     17  C15 <0> d           1.394  -2.827  12.390  0.00  0.00     0.028 C 
ATOM     18  C14 <0> d          -0.092  -3.019  12.079  0.00  0.00     0.236 C 
ATOM     19  H28 <0> d          -0.644  -1.352  13.112  0.00  0.00     0.280 HD
ENDBRANCH  10  12
ENDBRANCH   9  10
ENDBRANCH   7   9
ENDBRANCH   2   5
BRANCH   1  20
ATOM     20  C7  <0> d          -1.309  -0.895   4.835  0.00  0.00     0.037 A 
ATOM     21  C6  <0> d          -1.925  -0.979   3.592  0.00  0.00     0.029 A 
ATOM     22  C5  <0> d          -1.526  -0.147   2.564  0.00  0.00     0.005 A 
ATOM     23  C4  <0> d          -0.514   0.771   2.768  0.00  0.00     0.032 A 
ATOM     24  C3  <0> d           0.106   0.860   4.008  0.00  0.00     0.064 A 
ATOM     25  C8  <0> d          -0.288   0.023   5.041  0.00  0.00     0.061 A 
BRANCH  24  26
ATOM     26  N4  <0> d           1.133   1.793   4.214  0.00  0.00    -0.199 N 
ATOM     27  C2  <0> d           2.065   2.196   3.323  0.00  0.00     0.149 A 
ATOM     28  C1  <0> d           2.203   1.724   1.899  0.00  0.00     0.095 C 
ATOM     29  N1  <0> d           2.822   3.076   3.924  0.00  0.00    -0.114 NA
ATOM     30  N2  <0> d           2.435   3.253   5.136  0.00  0.00    -0.023 NA
ATOM     31  N3  <0> d           1.416   2.506   5.392  0.00  0.00    -0.039 NA
ENDBRANCH  24  26
ENDBRANCH   1  20
TORSDOF 6
