REMARK  5 active torsions:
REMARK  status: ('A' for Active; 'I' for Inactive)
REMARK    1  A    between atoms: O1_2  and  C2_3 
REMARK    2  A    between atoms: C5_6  and  C8_10 
REMARK       I    between atoms: C8_10  and  N1_12 
REMARK    3  A    between atoms: N1_12  and  C9_13 
REMARK    4  A    between atoms: N2_15  and  C10_16 
REMARK    5  A    between atoms: C19_25  and  O3_26 
ROOT
ATOM      1  C9  <0> d          -1.730   6.801   0.611  0.00  0.00     0.179 C 
ATOM      2  S1  <0> d          -0.414   7.875   0.816  0.00  0.00    -0.040 SA
ATOM      3  N2  <0> d          -1.507   5.524   0.242  0.00  0.00    -0.330 N 
ATOM      4  H8  <0> d          -2.255   4.926   0.088  0.00  0.00     0.168 HD
ENDROOT
BRANCH   1   5
ATOM      5  N1  <0> d          -2.991   7.232   0.818  0.00  0.00    -0.299 N 
ATOM      6  C8  <0> d          -3.214   8.509   1.187  0.00  0.00     0.257 C 
ATOM      7  O2  <0> d          -2.279   9.272   1.332  0.00  0.00    -0.267 OA
ATOM      8  H7  <0> d          -3.737   6.623   0.702  0.00  0.00     0.171 HD
BRANCH   6   9
ATOM      9  C5  <0> d          -4.593   8.981   1.413  0.00  0.00     0.033 A 
ATOM     10  C4  <0> d          -5.670   8.107   1.241  0.00  0.00     0.020 A 
ATOM     11  C3  <0> d          -6.955   8.549   1.460  0.00  0.00     0.039 A 
ATOM     12  C2  <0> d          -7.184   9.866   1.840  0.00  0.00     0.085 A 
ATOM     13  C7  <0> d          -6.116  10.741   2.007  0.00  0.00     0.045 A 
ATOM     14  C6  <0> d          -4.827  10.305   1.796  0.00  0.00     0.039 A 
ATOM     15 Br1  <0> d          -6.435  12.532   2.524  0.00  0.00    -0.048 Br
BRANCH  12  16
ATOM     16  O1  <0> d          -8.453  10.300   2.049  0.00  0.00    -0.355 OA
ATOM     17  C1  <0> d          -9.503   9.349   1.860  0.00  0.00     0.210 C 
ENDBRANCH  12  16
ENDBRANCH   6   9
ENDBRANCH   1   5
BRANCH   3  18
ATOM     18  C10 <0> d          -0.197   5.061   0.081  0.00  0.00     0.079 A 
ATOM     19  C19 <0> d           0.688   5.090   1.143  0.00  0.00     0.093 A 
ATOM     20  C18 <0> d           1.997   4.631   0.990  0.00  0.00     0.040 A 
ATOM     21  C17 <0> d           2.435   4.143  -0.203  0.00  0.00     0.015 A 
ATOM     22  C16 <0> d           1.564   4.096  -1.305  0.00  0.00    -0.024 A 
ATOM     23  C11 <0> d           0.233   4.560  -1.164  0.00  0.00     0.004 A 
ATOM     24  C15 <0> d           1.991   3.597  -2.548  0.00  0.00     0.012 A 
ATOM     25  C12 <0> d          -0.634   4.513  -2.268  0.00  0.00     0.014 A 
ATOM     26  C13 <0> d          -0.184   4.028  -3.458  0.00  0.00     0.001 A 
ATOM     27  C14 <0> d           1.123   3.566  -3.595  0.00  0.00     0.001 A 
BRANCH  19  28
ATOM     28  O3  <0> d           0.280   5.573   2.347  0.00  0.00    -0.358 OA
ATOM     29  H15 <0> d          -0.186   4.925   2.893  0.00  0.00     0.217 HD
ENDBRANCH  19  28
ENDBRANCH   3  18
TORSDOF 5
