REMARK  4 active torsions:
REMARK  status: ('A' for Active; 'I' for Inactive)
REMARK    1  A    between atoms: C7_11  and  C8_13 
REMARK    2  A    between atoms: C8_13  and  N3_15 
REMARK    3  A    between atoms: N3_15  and  C10_16 
REMARK    4  A    between atoms: C14_20  and  N4_22 
ROOT
ATOM      1  C8  <0> d           0.117  -3.434   4.561  0.00  0.00     0.147 C 
ATOM      2  C9  <0> d           1.293  -3.105   5.483  0.00  0.00     0.040 C 
ENDROOT
BRANCH   1   3
ATOM      3  C7  <0> d           0.112  -2.480   3.394  0.00  0.00     0.130 A 
ATOM      4  N1  <0> d           0.098  -1.143   3.627  0.00  0.00    -0.309 N 
ATOM      5  C6  <0> d           0.093  -0.256   2.614  0.00  0.00     0.260 A 
ATOM      6  H1  <0> d           0.092  -0.819   4.541  0.00  0.00     0.170 HD
ATOM      7  C5  <0> d           0.101  -0.743   1.266  0.00  0.00     0.075 A 
ATOM      8  O1  <0> d           0.080   0.942   2.839  0.00  0.00    -0.267 OA
ATOM      9  C2  <0> d           0.097  -0.001   0.019  0.00  0.00    -0.031 A 
ATOM     10  C4  <0> d           0.110  -2.142   1.125  0.00  0.00     0.116 A 
ATOM     11  C1  <0> d           0.083   1.506   0.029  0.00  0.00     0.050 C 
ATOM     12  C3  <0> d           0.112  -0.672  -1.143  0.00  0.00    -0.012 A 
ATOM     13  S1  <0> d           0.125  -2.380  -0.633  0.00  0.00    -0.074 SA
ATOM     14  C19 <0> d           0.116  -0.115  -2.544  0.00  0.00     0.057 C 
ATOM     15  N2  <0> d           0.111  -2.955   2.177  0.00  0.00    -0.225 NA
ENDBRANCH   1   3
BRANCH   1  16
ATOM     16  N3  <0> d           0.252  -4.807   4.068  0.00  0.00    -0.379 N 
ATOM     17  H9  <0> d           0.672  -4.976   3.210  0.00  0.00     0.160 HD
BRANCH  16  18
ATOM     18  C10 <0> d          -0.224  -5.874   4.834  0.00  0.00     0.030 A 
ATOM     19  C15 <0> d          -0.097  -7.175   4.369  0.00  0.00     0.059 A 
ATOM     20  C14 <0> d          -0.566  -8.232   5.135  0.00  0.00     0.041 A 
ATOM     21  C13 <0> d          -1.172  -7.984   6.360  0.00  0.00     0.030 A 
ATOM     22  C12 <0> d          -1.303  -6.687   6.819  0.00  0.00     0.004 A 
ATOM     23  C11 <0> d          -0.831  -5.633   6.061  0.00  0.00     0.029 A 
BRANCH  20  24
ATOM     24  N4  <0> d          -0.434  -9.546   4.672  0.00  0.00    -0.298 N 
ATOM     25  C18 <0> d           0.030  -9.901   3.467  0.00  0.00     0.323 A 
ATOM     26  N5  <0> d           0.063 -11.225   3.266  0.00  0.00    -0.341 N 
ATOM     27  O2  <0> d           0.394  -9.095   2.632  0.00  0.00    -0.247 OA
ATOM     28  C17 <0> d          -0.449 -11.908   4.463  0.00  0.00     0.144 A 
ATOM     29  H18 <0> d           0.370 -11.663   2.457  0.00  0.00     0.164 HD
ATOM     30  C16 <0> d          -0.789 -10.756   5.428  0.00  0.00     0.153 A 
ENDBRANCH  20  24
ENDBRANCH  16  18
ENDBRANCH   1  16
TORSDOF 4
