REMARK  5 active torsions:
REMARK  status: ('A' for Active; 'I' for Inactive)
REMARK    1  A    between atoms: C5_5  and  S1_22 
REMARK    2  A    between atoms: C7_7  and  C8_8 
REMARK       I    between atoms: C8_8  and  N1_10 
REMARK    3  A    between atoms: N1_10  and  C9_11 
REMARK    4  A    between atoms: C12_14  and  C15_17 
REMARK    5  A    between atoms: C15_17  and  N2_18 
REMARK       I    between atoms: N2_18  and  C16_19 
REMARK       I    between atoms: C16_19  and  N3_21 
ROOT
ATOM      1  C9  <0> d           0.469   0.029   4.848  0.00  0.00     0.035 A 
ATOM      2  C10 <0> d          -0.239   1.216   4.987  0.00  0.00     0.030 A 
ATOM      3  C11 <0> d          -0.234   1.884   6.196  0.00  0.00     0.011 A 
ATOM      4  C12 <0> d           0.476   1.373   7.267  0.00  0.00    -0.040 A 
ATOM      5  C13 <0> d           1.182   0.192   7.132  0.00  0.00     0.011 A 
ATOM      6  C14 <0> d           1.175  -0.484   5.928  0.00  0.00     0.030 A 
ENDROOT
BRANCH   1   7
ATOM      7  N1  <0> d           0.465  -0.649   3.626  0.00  0.00    -0.323 N 
ATOM      8  C8  <0> d           0.422   0.043   2.470  0.00  0.00     0.256 C 
ATOM      9  O1  <0> d           0.481   1.257   2.487  0.00  0.00    -0.267 OA
ATOM     10  H7  <0> d           0.493  -1.619   3.609  0.00  0.00     0.169 HD
BRANCH   8  11
ATOM     11  C7  <0> d           0.303  -0.674   1.183  0.00  0.00     0.039 A 
ATOM     12  C2  <0> d           0.118   0.041  -0.002  0.00  0.00    -0.046 A 
ATOM     13  C1  <0> d           0.041   1.546   0.030  0.00  0.00     0.049 C 
ATOM     14  C3  <0> d           0.013  -0.630  -1.204  0.00  0.00     0.009 A 
ATOM     15  C4  <0> d           0.083  -2.009  -1.239  0.00  0.00     0.019 A 
ATOM     16  C5  <0> d           0.261  -2.731  -0.064  0.00  0.00     0.001 A 
ATOM     17  C6  <0> d           0.368  -2.067   1.149  0.00  0.00     0.036 A 
BRANCH  16  18
ATOM     18  S1  <0> d           0.349  -4.490  -0.115  0.00  0.00    -0.134 SA
ATOM     19  C17 <0> d           0.162  -4.888  -1.875  0.00  0.00     0.095 C 
ENDBRANCH  16  18
ENDBRANCH   8  11
ENDBRANCH   1   7
BRANCH   4  20
ATOM     20  C15 <0> d           0.480   2.105   8.585  0.00  0.00     0.162 C 
BRANCH  20  21
ATOM     21  N2  <0> d          -0.634   1.630   9.410  0.00  0.00    -0.339 N 
ATOM     22  C16 <0> d          -0.829   2.147  10.640  0.00  0.00     0.314 C 
ATOM     23  O2  <0> d          -0.081   3.006  11.064  0.00  0.00    -0.248 OA
ATOM     24  N3  <0> d          -1.853   1.710  11.399  0.00  0.00    -0.352 N 
ATOM     25  H15 <0> d          -2.450   1.024  11.061  0.00  0.00     0.160 HD
ATOM     26  H16 <0> d          -1.994   2.082  12.284  0.00  0.00     0.160 HD
ATOM     27  H14 <0> d          -1.230   0.944   9.072  0.00  0.00     0.164 HD
ENDBRANCH  20  21
ENDBRANCH   4  20
TORSDOF 5
