REMARK  5 active torsions:
REMARK  status: ('A' for Active; 'I' for Inactive)
REMARK    1  A    between atoms: C5_6  and  C9_10 
REMARK       I    between atoms: C9_10  and  N2_12 
REMARK    2  A    between atoms: N2_12  and  C10_13 
REMARK    3  A    between atoms: C10_13  and  C11_14 
REMARK    4  A    between atoms: C11_14  and  C12_15 
REMARK       I    between atoms: C12_15  and  N3_17 
REMARK    5  A    between atoms: N3_17  and  C13_18 
ROOT
ATOM      1  C10 <0> d           3.862  -4.756   2.573  0.00  0.00     0.132 C 
ENDROOT
BRANCH   1   2
ATOM      2  N2  <0> d           3.363  -4.065   1.381  0.00  0.00    -0.359 N 
ATOM      3  C9  <0> d           3.656  -2.764   1.185  0.00  0.00     0.244 C 
ATOM      4  O1  <0> d           4.332  -2.165   1.995  0.00  0.00    -0.271 OA
ATOM      5  H8  <0> d           2.823  -4.543   0.734  0.00  0.00     0.162 HD
BRANCH   3   6
ATOM      6  C5  <0> d           3.143  -2.053  -0.041  0.00  0.00     0.198 A 
ATOM      7  N1  <0> d           3.587  -0.654  -0.037  0.00  0.00    -0.373 N 
ATOM      8  C4  <0> d           2.529   0.120  -0.022  0.00  0.00     0.039 A 
ATOM      9  H19 <0> d           4.509  -0.353  -0.045  0.00  0.00     0.161 HD
ATOM     10  C3  <0> d           2.391   1.535  -0.013  0.00  0.00     0.030 A 
ATOM     11  C7  <0> d           1.295  -0.698  -0.014  0.00  0.00    -0.011 A 
ATOM     12  C2  <0> d           1.166   2.101   0.002  0.00  0.00     0.002 A 
ATOM     13  C1  <0> d          -0.016   1.348   0.009  0.00  0.00     0.001 A 
ATOM     14  C8  <0> d           0.002  -0.004   0.002  0.00  0.00     0.013 A 
ATOM     15  C6  <0> d           1.631  -2.008  -0.025  0.00  0.00     0.021 A 
ENDBRANCH   3   6
ENDBRANCH   1   2
BRANCH   1  16
ATOM     16  C11 <0> d           3.391  -6.211   2.553  0.00  0.00     0.122 C 
BRANCH  16  17
ATOM     17  C12 <0> d           3.903  -6.922   3.779  0.00  0.00     0.221 C 
ATOM     18  O2  <0> d           4.579  -6.324   4.589  0.00  0.00    -0.273 OA
ATOM     19  N3  <0> d           3.611  -8.223   3.975  0.00  0.00    -0.331 N 
ATOM     20  H13 <0> d           3.070  -8.702   3.327  0.00  0.00     0.165 HD
BRANCH  19  21
ATOM     21  C13 <0> d           4.109  -8.914   5.167  0.00  0.00     0.254 A 
ATOM     22  S1  <0> d           3.074  -8.530   6.635  0.00  0.00    -0.081 SA
ATOM     23  C19 <0> d           2.501 -10.180   6.976  0.00  0.00     0.030 A 
ATOM     24  C14 <0> d           3.090 -10.982   5.994  0.00  0.00     0.047 A 
ATOM     25  C18 <0> d           1.670 -10.691   7.947  0.00  0.00     0.021 A 
ATOM     26  N4  <0> d           3.917 -10.367   5.055  0.00  0.00    -0.359 N 
ATOM     27  C15 <0> d           2.789 -12.354   6.045  0.00  0.00     0.030 A 
ATOM     28  H14 <0> d           4.349 -10.879   4.353  0.00  0.00     0.162 HD
ATOM     29  C16 <0> d           1.959 -12.866   7.014  0.00  0.00     0.002 A 
ATOM     30  C17 <0> d           1.391 -12.047   7.973  0.00  0.00     0.002 A 
ENDBRANCH  19  21
ENDBRANCH  16  17
ENDBRANCH   1  16
TORSDOF 5
