REMARK  2 active torsions:
REMARK  status: ('A' for Active; 'I' for Inactive)
REMARK    1  A    between atoms: C6_7  and  N2_10 
REMARK       I    between atoms: N2_10  and  C9_11 
REMARK    2  A    between atoms: C9_11  and  C10_13 
ROOT
ATOM      1  N2  <0> d           0.700  -3.088  -0.022  0.00  0.00    -0.326 N 
ATOM      2  C9  <0> d          -0.625  -2.872   0.093  0.00  0.00     0.247 C 
ATOM      3  O1  <0> d          -1.056  -1.739   0.104  0.00  0.00    -0.271 OA
ATOM      4  H9  <0> d           1.039  -3.993  -0.105  0.00  0.00     0.168 HD
ENDROOT
BRANCH   1   5
ATOM      5  C6  <0> d           1.564  -2.035  -0.023  0.00  0.00     0.042 A 
ATOM      6  C5  <0> d           1.211  -0.564  -0.012  0.00  0.00     0.177 A 
ATOM      7  N1  <0> d           2.487   0.158  -0.018  0.00  0.00    -0.384 N 
ATOM      8  C4  <0> d           3.475  -0.714  -0.031  0.00  0.00     0.040 A 
ATOM      9  H15 <0> d           2.588   1.123  -0.012  0.00  0.00     0.160 HD
ATOM     10  C3  <0> d           4.884  -0.537  -0.041  0.00  0.00     0.030 A 
ATOM     11  C7  <0> d           2.947  -2.089  -0.035  0.00  0.00     0.015 A 
ATOM     12  C2  <0> d           5.698  -1.620  -0.053  0.00  0.00     0.002 A 
ATOM     13  C1  <0> d           5.194  -2.924  -0.057  0.00  0.00     0.001 A 
ATOM     14  C8  <0> d           3.861  -3.170  -0.048  0.00  0.00     0.016 A 
ENDBRANCH   1   5
BRANCH   2  15
ATOM     15  C10 <0> d          -1.571  -4.039   0.209  0.00  0.00     0.207 C 
ATOM     16  N4  <0> d          -2.906  -3.599   0.684  0.00  0.00    -0.299 N 
ATOM     17  N3  <0> d          -3.716  -3.408  -0.444  0.00  0.00    -0.183 NA
ATOM     18  H14 <0> d          -3.170  -3.468   1.608  0.00  0.00     0.183 HD
ATOM     19  C16 <0> d          -3.189  -3.848  -1.536  0.00  0.00     0.064 C 
ATOM     20  C11 <0> d          -1.920  -4.606  -1.173  0.00  0.00     0.095 C 
ATOM     21  C15 <0> d          -3.422  -3.672  -2.932  0.00  0.00     0.029 C 
ATOM     22  C12 <0> d          -0.751  -4.473  -2.112  0.00  0.00    -0.013 C 
ATOM     23  C13 <0> d          -1.025  -4.085  -3.366  0.00  0.00    -0.003 C 
ATOM     24  C14 <0> d          -2.390  -3.803  -3.795  0.00  0.00     0.002 C 
ENDBRANCH   2  15
TORSDOF 2
