REMARK  5 active torsions:
REMARK  status: ('A' for Active; 'I' for Inactive)
REMARK    1  A    between atoms: C7_10  and  C8_12 
REMARK    2  A    between atoms: C8_12  and  N3_13 
REMARK    3  A    between atoms: N3_13  and  C9_14 
REMARK    4  A    between atoms: C14_19  and  C15_20 
REMARK    5  A    between atoms: C15_20  and  N4_21 
ROOT
ATOM      1  C9  <0> d          -1.224  -4.940   5.159  0.00  0.00     0.036 A 
ATOM      2  C10 <0> d          -0.065  -5.103   5.906  0.00  0.00     0.030 A 
ATOM      3  C11 <0> d          -0.093  -5.849   7.068  0.00  0.00     0.002 A 
ATOM      4  C12 <0> d          -1.274  -6.434   7.488  0.00  0.00     0.001 A 
ATOM      5  C13 <0> d          -2.430  -6.273   6.746  0.00  0.00     0.011 A 
ATOM      6  C14 <0> d          -2.410  -5.524   5.587  0.00  0.00    -0.004 A 
ENDROOT
BRANCH   1   7
ATOM      7  N3  <0> d          -1.200  -4.186   3.983  0.00  0.00    -0.384 N 
ATOM      8  H10 <0> d          -1.988  -4.139   3.421  0.00  0.00     0.160 HD
BRANCH   7   9
ATOM      9  C8  <0> d           0.018  -3.466   3.601  0.00  0.00     0.177 C 
BRANCH   9  10
ATOM     10  C7  <0> d          -0.217  -2.736   2.303  0.00  0.00     0.034 A 
ATOM     11  C6  <0> d          -0.196  -1.359   2.259  0.00  0.00     0.101 A 
ATOM     12  C5  <0> d          -0.415  -0.701   1.048  0.00  0.00     0.256 A 
ATOM     13  N1  <0> d          -0.650  -1.424  -0.087  0.00  0.00    -0.262 N 
ATOM     14  O1  <0> d          -0.397   0.519   1.004  0.00  0.00    -0.268 OA
ATOM     15  C2  <0> d          -0.882  -0.925  -1.346  0.00  0.00     0.025 A 
ATOM     16  C4  <0> d          -0.659  -2.787   0.048  0.00  0.00     0.158 A 
ATOM     17  C1  <0> d          -0.890   0.567  -1.562  0.00  0.00     0.069 C 
ATOM     18  C3  <0> d          -1.094  -1.738  -2.381  0.00  0.00     0.078 A 
ATOM     19  S1  <0> d          -0.983  -3.345  -1.611  0.00  0.00    -0.063 SA
ATOM     20  N2  <0> d          -0.458  -3.411   1.182  0.00  0.00    -0.338 N 
ATOM     21  H27 <0> d          -0.475  -4.380   1.202  0.00  0.00     0.168 HD
ENDBRANCH   9  10
ENDBRANCH   7   9
ENDBRANCH   1   7
BRANCH   6  22
ATOM     22  C15 <0> d          -3.672  -5.344   4.783  0.00  0.00     0.313 C 
BRANCH  22  23
ATOM     23  N4  <0> d          -4.206  -3.994   5.005  0.00  0.00     0.097 N 
ATOM     24  C19 <0> d          -5.197  -3.644   3.977  0.00  0.00     0.304 C 
ATOM     25  C18 <0> d          -5.683  -2.211   4.211  0.00  0.00     0.146 C 
ATOM     26  O2  <0> d          -6.214  -2.103   5.534  0.00  0.00    -0.378 OA
ATOM     27  C20 <0> d          -6.772  -1.867   3.193  0.00  0.00     0.041 C 
ATOM     28  C17 <0> d          -5.275  -2.436   6.560  0.00  0.00     0.146 C 
ATOM     29  C16 <0> d          -4.785  -3.871   6.350  0.00  0.00     0.304 C 
ATOM     30  C21 <0> d          -4.085  -1.476   6.497  0.00  0.00     0.041 C 
ENDBRANCH  22  23
ENDBRANCH   6  22
TORSDOF 5
