REMARK  2 active torsions:
REMARK  status: ('A' for Active; 'I' for Inactive)
REMARK    1  A    between atoms: C8_11  and  C9_13 
REMARK    2  A    between atoms: C11_16  and  C12_18 
ROOT
ATOM      1  C1  <0> d          -0.019   1.526   0.010  0.00  0.00     0.016 C 
ATOM      2  C2  <0> d           0.002  -0.004   0.002  0.00  0.00    -0.030 C 
ATOM      3  C3  <0> d           0.753  -0.508  -1.248  0.00  0.00     0.040 C 
ATOM      4  C4  <0> d           1.430  -1.834  -0.951  0.00  0.00     0.143 C 
ATOM      5  C5  <0> d           2.909  -1.638  -0.548  0.00  0.00     0.200 C 
ATOM      6  C6  <0> d           3.071  -0.489   0.408  0.00  0.00     0.242 C 
ATOM      7  O1  <0> d           4.164   0.033   0.479  0.00  0.00    -0.271 OA
ATOM      8  N1  <0> d           2.116  -0.007   1.170  0.00  0.00    -0.359 N 
ATOM      9  C7  <0> d           0.740  -0.517   1.238  0.00  0.00     0.131 C 
ATOM     10  N2  <0> d           3.089  -2.878   0.269  0.00  0.00    -0.358 N 
ATOM     11  C8  <0> d           1.847  -3.180   0.784  0.00  0.00     0.149 C 
ATOM     12  N3  <0> d           0.878  -2.558   0.191  0.00  0.00    -0.263 NA
ATOM     13  C16 <0> d          -1.431  -0.540  -0.004  0.00  0.00     0.016 C 
ATOM     14  H8  <0> d           2.349   0.730   1.756  0.00  0.00     0.162 HD
ATOM     15  H11 <0> d           3.913  -3.370   0.408  0.00  0.00     0.162 HD
ENDROOT
BRANCH  11  16
ATOM     16  C9  <0> d           1.644  -4.112   1.913  0.00  0.00     0.110 A 
ATOM     17  N4  <0> d           2.677  -4.706   2.484  0.00  0.00    -0.233 NA
ATOM     18  C11 <0> d           2.453  -5.528   3.494  0.00  0.00     0.146 A 
ATOM     19  S1  <0> d           0.675  -5.462   3.628  0.00  0.00    -0.076 SA
ATOM     20  C10 <0> d           0.382  -4.376   2.376  0.00  0.00     0.087 A 
BRANCH  18  21
ATOM     21  C12 <0> d           3.421  -6.304   4.299  0.00  0.00     0.185 A 
ATOM     22  N6  <0> d           2.975  -7.084   5.276  0.00  0.00    -0.239 NA
ATOM     23  C15 <0> d           3.813  -7.795   6.009  0.00  0.00     0.120 A 
ATOM     24  C14 <0> d           5.175  -7.710   5.755  0.00  0.00     0.038 A 
ATOM     25  C13 <0> d           5.608  -6.881   4.731  0.00  0.00     0.120 A 
ATOM     26  N5  <0> d           4.717  -6.201   4.031  0.00  0.00    -0.239 NA
ENDBRANCH  18  21
ENDBRANCH  11  16
TORSDOF 2
