REMARK  6 active torsions:
REMARK  status: ('A' for Active; 'I' for Inactive)
REMARK    1  A    between atoms: N2_6  and  C5_7 
REMARK    2  A    between atoms: C10_12  and  C11_13 
REMARK    3  A    between atoms: C11_13  and  N3_14 
REMARK    4  A    between atoms: N3_14  and  S1_15 
REMARK    5  A    between atoms: S1_15  and  C12_18 
REMARK    6  A    between atoms: C12_18  and  C13_19 
ROOT
ATOM      1  C11 <0> d          -2.259   0.581   2.088  0.00  0.00     0.172 C 
ENDROOT
BRANCH   1   2
ATOM      2  C10 <0> d          -1.063   0.297   2.959  0.00  0.00    -0.013 A 
ATOM      3  C5  <0> d           0.030  -0.381   2.438  0.00  0.00     0.048 A 
ATOM      4  C6  <0> d           1.133  -0.636   3.242  0.00  0.00     0.030 A 
ATOM      5  C7  <0> d           1.137  -0.220   4.559  0.00  0.00     0.002 A 
ATOM      6  C8  <0> d           0.044   0.452   5.076  0.00  0.00     0.001 A 
ATOM      7  C9  <0> d          -1.055   0.707   4.278  0.00  0.00     0.011 A 
BRANCH   3   8
ATOM      8  N2  <0> d           0.023  -0.803   1.100  0.00  0.00    -0.310 N 
ATOM      9  C2  <0> d           0.002  -0.004   0.002  0.00  0.00     0.083 A 
ATOM     10  C1  <0> d          -0.018   1.503   0.010  0.00  0.00     0.089 C 
ATOM     11  N1  <0> d           0.008  -0.760  -1.062  0.00  0.00    -0.354 N 
ATOM     12  C3  <0> d           0.027  -2.049  -0.691  0.00  0.00     0.107 A 
ATOM     13  H19 <0> d          -0.000  -0.440  -1.978  0.00  0.00     0.166 HD
ATOM     14  C4  <0> d           0.033  -2.099   0.655  0.00  0.00     0.115 A 
ENDBRANCH   3   8
ENDBRANCH   1   2
BRANCH   1  15
ATOM     15  N3  <0> d          -3.094  -0.619   1.998  0.00  0.00    -0.315 N 
ATOM     16  H12 <0> d          -2.739  -1.479   2.273  0.00  0.00     0.172 HD
BRANCH  15  17
ATOM     17  S1  <0> d          -4.644  -0.509   1.426  0.00  0.00     0.230 S 
ATOM     18  O1  <0> d          -5.153  -1.834   1.501  0.00  0.00    -0.206 OA
ATOM     19  O2  <0> d          -5.236   0.538   2.183  0.00  0.00    -0.206 OA
BRANCH  17  20
ATOM     20  C12 <0> d          -4.467  -0.004  -0.307  0.00  0.00     0.204 C 
BRANCH  20  21
ATOM     21  C13 <0> d          -5.832   0.129  -0.933  0.00  0.00    -0.004 A 
ATOM     22  C18 <0> d          -6.499   1.341  -0.890  0.00  0.00     0.123 A 
ATOM     23  C17 <0> d          -7.750   1.462  -1.470  0.00  0.00     0.043 A 
ATOM     24  F1  <0> d          -5.927   2.406  -0.286  0.00  0.00    -0.206 F 
ATOM     25  C16 <0> d          -8.336   0.371  -2.083  0.00  0.00     0.003 A 
ATOM     26  C15 <0> d          -7.671  -0.840  -2.121  0.00  0.00     0.001 A 
ATOM     27  C14 <0> d          -6.420  -0.962  -1.546  0.00  0.00     0.011 A 
ENDBRANCH  20  21
ENDBRANCH  17  20
ENDBRANCH  15  17
ENDBRANCH   1  15
TORSDOF 6
