REMARK  5 active torsions:
REMARK  status: ('A' for Active; 'I' for Inactive)
REMARK    1  A    between atoms: C7_9  and  C10_14 
REMARK    2  A    between atoms: C8_10  and  O3_13 
REMARK    3  A    between atoms: C10_14  and  N1_25 
REMARK    4  A    between atoms: C11_15  and  C12_16 
REMARK    5  A    between atoms: C11_15  and  N1_25 
ROOT
ATOM      1  C1  <0> d           3.078   2.400  -1.242  0.00  0.00     0.041 A 
ATOM      2  C2  <0> d           3.733   2.691  -0.040  0.00  0.00     0.007 A 
ATOM      3  C3  <0> d           5.064   3.303  -0.036  0.00  0.00    -0.033 A 
ATOM      4  C4  <0> d           5.651   3.565   1.159  0.00  0.00     0.025 A 
ATOM      5  C5  <0> d           4.970   3.243   2.354  0.00  0.00     0.295 A 
ATOM      6  O1  <0> d           5.503   3.482   3.422  0.00  0.00    -0.259 OA
ATOM      7  O2  <0> d           3.752   2.680   2.345  0.00  0.00    -0.274 OA
ATOM      8  C6  <0> d           3.115   2.395   1.189  0.00  0.00     0.101 A 
ATOM      9  C7  <0> d           1.854   1.819   1.197  0.00  0.00     0.037 A 
ATOM     10  C8  <0> d           1.222   1.532  -0.001  0.00  0.00     0.098 A 
ATOM     11  C9  <0> d           1.838   1.828  -1.217  0.00  0.00     0.068 A 
ATOM     12 Cl1  <0> d           1.024   1.468  -2.707  0.00  0.00    -0.081 Cl
ATOM     13  C16 <0> d           7.011   4.194   0.941  0.00  0.00     0.046 C 
ATOM     14  C17 <0> d           7.365   3.886  -0.530  0.00  0.00     0.009 C 
ATOM     15  C18 <0> d           5.969   3.726  -1.171  0.00  0.00     0.040 C 
ENDROOT
BRANCH   9  16
ATOM     16  C10 <0> d           1.177   1.500   2.505  0.00  0.00     0.276 C 
BRANCH  16  17
ATOM     17  N1  <0> d           1.543   0.133   2.918  0.00  0.00    -0.069 N 
ATOM     18  H20 <0> d           2.562   0.074   3.030  0.00  0.00     0.277 HD
ATOM     19  H21 <0> d           1.240  -0.532   2.197  0.00  0.00     0.277 HD
BRANCH  17  20
ATOM     20  C11 <0> d           0.893  -0.207   4.198  0.00  0.00     0.264 C 
BRANCH  20  21
ATOM     21  C12 <0> d           1.291  -1.628   4.601  0.00  0.00     0.147 C 
ATOM     22  O4  <0> d           0.827  -2.564   3.615  0.00  0.00    -0.384 OA
ATOM     23  C15 <0> d           0.475  -3.776   4.316  0.00  0.00     0.168 C 
ATOM     24  C14 <0> d          -0.215  -3.261   5.605  0.00  0.00     0.029 C 
ATOM     25  C13 <0> d           0.620  -2.001   5.938  0.00  0.00     0.036 C 
ENDBRANCH  20  21
ENDBRANCH  17  20
ENDBRANCH  16  17
ENDBRANCH   9  16
BRANCH  10  26
ATOM     26  O3  <0> d          -0.011   0.963   0.007  0.00  0.00    -0.358 OA
ATOM     27  H3  <0> d           0.002  -0.004   0.002  0.00  0.00     0.217 HD
ENDBRANCH  10  26
TORSDOF 5
