REMARK  4 active torsions:
REMARK  status: ('A' for Active; 'I' for Inactive)
REMARK    1  A    between atoms: O1_2  and  C2_3 
REMARK    2  A    between atoms: C2_3  and  C3_4 
REMARK    3  A    between atoms: C3_4  and  N1_5 
REMARK    4  A    between atoms: C5_8  and  C8_14 
ROOT
ATOM      1  C8  <0> d           0.868  -3.188  -3.827  0.00  0.00     0.255 C 
ATOM      2  C9  <0> d          -0.182  -4.299  -3.775  0.00  0.00     0.147 A 
ATOM      3  C10 <0> d          -0.902  -4.266  -5.119  0.00  0.00    -0.041 A 
ATOM      4  C11 <0> d          -0.833  -5.494  -5.612  0.00  0.00    -0.005 A 
ATOM      5  C12 <0> d          -1.412  -6.102  -6.821  0.00  0.00     0.014 A 
ATOM      6  C13 <0> d          -1.120  -7.412  -7.033  0.00  0.00     0.001 A 
ATOM      7  C14 <0> d          -0.321  -8.171  -6.173  0.00  0.00     0.002 A 
ATOM      8  C15 <0> d           0.247  -7.697  -5.035  0.00  0.00     0.030 A 
ATOM      9  C16 <0> d           0.009  -6.332  -4.703  0.00  0.00     0.039 A 
ATOM     10  N3  <0> d           0.409  -5.631  -3.659  0.00  0.00    -0.378 N 
ATOM     11  C17 <0> d          -1.443  -2.978  -5.691  0.00  0.00     0.065 C 
ATOM     12  C18 <0> d          -0.314  -1.940  -5.549  0.00  0.00     0.237 C 
ATOM     13  N4  <0> d           0.194  -1.928  -4.176  0.00  0.00    -0.064 N 
ATOM     14  H18 <0> d          -0.577  -1.782  -3.542  0.00  0.00     0.278 HD
ATOM     15  H19 <0> d           0.991  -5.934  -2.945  0.00  0.00     0.160 HD
ATOM     16  H20 <0> d           0.849  -1.166  -4.074  0.00  0.00     0.278 HD
ENDROOT
BRANCH   1  17
ATOM     17  C5  <0> d           1.532  -3.053  -2.481  0.00  0.00     0.097 A 
ATOM     18  C4  <0> d           0.789  -2.646  -1.358  0.00  0.00     0.262 A 
ATOM     19  N1  <0> d           1.401  -2.532  -0.162  0.00  0.00    -0.288 N 
ATOM     20  O2  <0> d          -0.399  -2.397  -1.465  0.00  0.00    -0.267 OA
ATOM     21  C7  <0> d           2.714  -2.799  -0.039  0.00  0.00     0.183 A 
ATOM     22  N2  <0> d           3.443  -3.196  -1.099  0.00  0.00    -0.310 N 
ATOM     23  S1  <0> d           3.468  -2.639   1.490  0.00  0.00    -0.040 SA
ATOM     24  C6  <0> d           2.860  -3.325  -2.334  0.00  0.00     0.195 A 
ATOM     25  H21 <0> d           4.387  -3.388  -0.990  0.00  0.00     0.170 HD
ATOM     26  O3  <0> d           3.595  -3.718  -3.396  0.00  0.00    -0.171 OA
BRANCH  19  27
ATOM     27  C3  <0> d           0.633  -2.108   1.011  0.00  0.00     0.161 C 
BRANCH  27  28
ATOM     28  C2  <0> d           0.673  -0.582   1.123  0.00  0.00     0.187 C 
BRANCH  28  29
ATOM     29  O1  <0> d           0.002  -0.004   0.002  0.00  0.00    -0.394 OA
ATOM     30  C1  <0> d          -0.017   1.425   0.010  0.00  0.00     0.201 C 
ENDBRANCH  28  29
ENDBRANCH  27  28
ENDBRANCH  19  27
ENDBRANCH   1  17
TORSDOF 4
