REMARK  3 active torsions:
REMARK  status: ('A' for Active; 'I' for Inactive)
REMARK    1  A    between atoms: C6_7  and  N3_11 
REMARK    2  A    between atoms: C10_14  and  C13_17 
REMARK       I    between atoms: C13_17  and  N4_19 
REMARK    3  A    between atoms: N4_19  and  C14_20 
ROOT
ATOM      1  N3  <0> d          -2.140   1.089   1.251  0.00  0.00    -0.267 NA
ATOM      2  C8  <0> d          -0.760   1.592   1.244  0.00  0.00     0.098 C 
ATOM      3  C9  <0> d          -0.043   1.099  -0.015  0.00  0.00     0.029 C 
ATOM      4  C10 <0> d          -0.794   1.596  -1.253  0.00  0.00     0.080 C 
ATOM      5  C11 <0> d          -2.241   1.099  -1.196  0.00  0.00     0.029 C 
ATOM      6  C12 <0> d          -2.895   1.592   0.096  0.00  0.00     0.098 C 
ENDROOT
BRANCH   4   7
ATOM      7  C13 <0> d          -0.126   1.064  -2.494  0.00  0.00     0.222 C 
ATOM      8  O1  <0> d           0.855   0.357  -2.400  0.00  0.00    -0.273 OA
ATOM      9  N4  <0> d          -0.618   1.375  -3.710  0.00  0.00    -0.351 N 
ATOM     10  H14 <0> d          -1.402   1.940  -3.786  0.00  0.00     0.163 HD
BRANCH   9  11
ATOM     11  C14 <0> d           0.032   0.858  -4.917  0.00  0.00     0.043 C 
ATOM     12  C17 <0> d           1.492   1.367  -4.973  0.00  0.00     0.170 C 
ATOM     13  S2  <0> d           1.345   2.916  -5.951  0.00  0.00     0.146 S 
ATOM     14  C16 <0> d          -0.454   2.858  -6.344  0.00  0.00     0.143 C 
ATOM     15  O2  <0> d           2.086   2.774  -7.155  0.00  0.00    -0.228 OA
ATOM     16  O3  <0> d           1.598   4.026  -5.101  0.00  0.00    -0.228 OA
ATOM     17  C15 <0> d          -0.738   1.340  -6.158  0.00  0.00     0.046 C 
ATOM     18  C18 <0> d           0.029  -0.672  -4.880  0.00  0.00     0.039 C 
ENDBRANCH   9  11
ENDBRANCH   4   7
BRANCH   1  19
ATOM     19  C6  <0> d          -2.778   1.408   2.437  0.00  0.00     0.120 A 
ATOM     20  C5  <0> d          -3.302   0.383   3.271  0.00  0.00     0.047 A 
ATOM     21  C2  <0> d          -3.279  -1.059   3.096  0.00  0.00    -0.033 A 
ATOM     22  C4  <0> d          -3.926   0.827   4.457  0.00  0.00     0.113 A 
ATOM     23  C1  <0> d          -2.639  -1.669   1.875  0.00  0.00     0.050 C 
ATOM     24  C3  <0> d          -3.838  -1.841   4.031  0.00  0.00    -0.012 A 
ATOM     25  S1  <0> d          -4.442  -0.678   5.240  0.00  0.00    -0.074 SA
ATOM     26  C19 <0> d          -3.935  -3.345   4.054  0.00  0.00     0.057 C 
ATOM     27  N2  <0> d          -4.015   2.110   4.748  0.00  0.00    -0.234 NA
ATOM     28  C7  <0> d          -3.514   3.016   3.931  0.00  0.00     0.236 A 
ATOM     29  N1  <0> d          -2.912   2.672   2.807  0.00  0.00    -0.229 NA
ENDBRANCH   1  19
TORSDOF 3
