REMARK  3 active torsions:
REMARK  status: ('A' for Active; 'I' for Inactive)
REMARK    1  A    between atoms: N1_2  and  C3_4 
REMARK    2  A    between atoms: N2_7  and  S1_10 
REMARK    3  A    between atoms: S1_10  and  C8_13 
ROOT
ATOM      1  S1  <0> d           0.421  -2.901   4.868  0.00  0.00     0.260 S 
ATOM      2  O1  <0> d          -0.568  -2.170   5.581  0.00  0.00    -0.200 OA
ATOM      3  O2  <0> d           0.168  -4.186   4.317  0.00  0.00    -0.200 OA
ENDROOT
BRANCH   1   4
ATOM      4  N2  <0> d           0.911  -1.937   3.615  0.00  0.00    -0.307 N 
ATOM      5  C5  <0> d           1.506  -2.524   2.407  0.00  0.00     0.137 C 
ATOM      6  C4  <0> d           0.735  -2.021   1.183  0.00  0.00     0.054 C 
ATOM      7  C3  <0> d           0.713  -0.491   1.192  0.00  0.00     0.190 C 
ATOM      8  C7  <0> d          -0.004   0.003   2.451  0.00  0.00     0.054 C 
ATOM      9  C6  <0> d           0.759  -0.477   3.690  0.00  0.00     0.137 C 
BRANCH   7  10
ATOM     10  N1  <0> d           0.002  -0.004   0.002  0.00  0.00    -0.074 N 
ATOM     11  C1  <0> d          -0.018   1.465   0.010  0.00  0.00     0.269 C 
ATOM     12  C2  <0> d           0.690  -0.478  -1.207  0.00  0.00     0.269 C 
ATOM     13  H24 <0> d          -0.945  -0.353   0.009  0.00  0.00     0.279 HD
ENDBRANCH   7  10
ENDBRANCH   1   4
BRANCH   1  14
ATOM     14  C8  <0> d           1.796  -3.082   5.956  0.00  0.00     0.080 A 
ATOM     15  C13 <0> d           1.983  -2.184   6.990  0.00  0.00     0.034 A 
ATOM     16  C12 <0> d           3.057  -2.328   7.847  0.00  0.00    -0.029 A 
ATOM     17  C11 <0> d           3.962  -3.363   7.673  0.00  0.00     0.034 A 
ATOM     18  C14 <0> d           3.490  -1.507   9.041  0.00  0.00     0.060 A 
ATOM     19  C10 <0> d           3.769  -4.262   6.622  0.00  0.00     0.031 A 
ATOM     20  N3  <0> d           4.974  -3.330   8.634  0.00  0.00    -0.389 N 
ATOM     21  C9  <0> d           2.693  -4.118   5.773  0.00  0.00     0.027 A 
ATOM     22  C15 <0> d           4.768  -2.199   9.543  0.00  0.00     0.124 A 
ATOM     23  H23 <0> d           5.706  -3.963   8.692  0.00  0.00     0.159 HD
ENDBRANCH   1  14
TORSDOF 3
