REMARK  7 active torsions:
REMARK  status: ('A' for Active; 'I' for Inactive)
REMARK    1  A    between atoms: N2_5  and  C6_8 
REMARK    2  A    between atoms: C6_8  and  C7_9 
REMARK    3  A    between atoms: C13_16  and  C14_17 
REMARK    4  A    between atoms: C14_17  and  N4_18 
REMARK    5  A    between atoms: N4_18  and  C15_19 
REMARK    6  A    between atoms: N5_21  and  C16_22 
REMARK    7  A    between atoms: C16_22  and  C17_23 
ROOT
ATOM      1  C7  <0> d           2.475  -4.439   1.005  0.00  0.00     0.044 C 
ATOM      2  C8  <0> d           1.927  -4.187   2.412  0.00  0.00     0.242 C 
ATOM      3  N3  <0> d           1.824  -5.452   3.144  0.00  0.00    -0.065 N 
ATOM      4  C9  <0> d           0.898  -6.364   2.469  0.00  0.00     0.236 C 
ATOM      5  C10 <0> d           1.412  -6.688   1.064  0.00  0.00     0.032 C 
ATOM      6  C11 <0> d           2.735  -5.941   0.834  0.00  0.00    -0.003 C 
ATOM      7  C12 <0> d           3.734  -6.386   1.912  0.00  0.00     0.040 C 
ATOM      8  C13 <0> d           3.143  -6.071   3.291  0.00  0.00     0.206 C 
ATOM      9  H34 <0> d           1.457  -5.259   4.064  0.00  0.00     0.280 HD
ENDROOT
BRANCH   8  10
ATOM     10  C14 <0> d           3.009  -7.367   4.094  0.00  0.00     0.155 C 
BRANCH  10  11
ATOM     11  N4  <0> d           2.349  -7.084   5.371  0.00  0.00    -0.365 N 
ATOM     12  H27 <0> d           2.075  -6.178   5.585  0.00  0.00     0.161 HD
BRANCH  11  13
ATOM     13  C15 <0> d           2.123  -8.082   6.248  0.00  0.00     0.167 C 
ATOM     14  S1  <0> d           2.606  -9.680   5.870  0.00  0.00    -0.041 SA
ATOM     15  N5  <0> d           1.516  -7.822   7.423  0.00  0.00    -0.361 N 
ATOM     16  H28 <0> d           1.242  -6.916   7.637  0.00  0.00     0.162 HD
BRANCH  15  17
ATOM     17  C16 <0> d           1.270  -8.906   8.377  0.00  0.00     0.187 C 
BRANCH  17  18
ATOM     18  C17 <0> d           0.585  -8.354   9.600  0.00  0.00     0.070 A 
ATOM     19  O1  <0> d           1.198  -7.882  10.698  0.00  0.00    -0.325 OA
ATOM     20  C20 <0> d           0.276  -7.470  11.583  0.00  0.00     0.142 A 
ATOM     21  C19 <0> d          -0.944  -7.685  11.058  0.00  0.00     0.027 A 
ATOM     22  C18 <0> d          -0.745  -8.255   9.780  0.00  0.00     0.036 A 
ENDBRANCH  17  18
ENDBRANCH  15  17
ENDBRANCH  11  13
ENDBRANCH  10  11
ENDBRANCH   8  10
BRANCH   1  23
ATOM     23  C6  <0> d           1.453  -3.974  -0.034  0.00  0.00     0.279 C 
BRANCH  23  24
ATOM     24  N2  <0> d           1.304  -2.515   0.045  0.00  0.00     0.092 N 
ATOM     25  C3  <0> d           2.451  -1.834  -0.571  0.00  0.00     0.300 C 
ATOM     26  C2  <0> d           2.286  -0.320  -0.415  0.00  0.00     0.264 C 
ATOM     27  N1  <0> d           1.038   0.105  -1.062  0.00  0.00    -0.072 N 
ATOM     28  C1  <0> d           0.889   1.560  -0.927  0.00  0.00     0.269 C 
ATOM     29  C5  <0> d          -0.101  -0.565  -0.419  0.00  0.00     0.264 C 
ATOM     30  H35 <0> d           1.065  -0.141  -2.040  0.00  0.00     0.279 HD
ATOM     31  C4  <0> d           0.044  -2.080  -0.575  0.00  0.00     0.300 C 
ENDBRANCH  23  24
ENDBRANCH   1  23
TORSDOF 7
