REMARK  3 active torsions:
REMARK  status: ('A' for Active; 'I' for Inactive)
REMARK    1  A    between atoms: O1_2  and  C2_3 
REMARK    2  A    between atoms: C5_6  and  C8_9 
REMARK    3  A    between atoms: C10_11  and  C12_16 
ROOT
ATOM      1  C8  <0> d           2.490   1.045  -0.016  0.00  0.00     0.144 A 
ATOM      2  C9  <0> d           3.004   1.043  -1.440  0.00  0.00     0.033 A 
ATOM      3  C10 <0> d           4.205   1.580  -1.673  0.00  0.00     0.045 A 
ATOM      4  N1  <0> d           4.959   2.125  -0.637  0.00  0.00    -0.308 N 
ATOM      5  C11 <0> d           4.547   2.150   0.637  0.00  0.00     0.321 A 
ATOM      6  O2  <0> d           5.269   2.645   1.481  0.00  0.00    -0.247 OA
ATOM      7  N2  <0> d           3.357   1.643   1.013  0.00  0.00    -0.331 N 
ATOM      8  H10 <0> d           5.826   2.505  -0.849  0.00  0.00     0.170 HD
ATOM      9  H11 <0> d           3.076   1.671   1.941  0.00  0.00     0.165 HD
ENDROOT
BRANCH   1  10
ATOM     10  C5  <0> d           1.176   1.783   0.000  0.00  0.00    -0.032 A 
ATOM     11  C4  <0> d          -0.013   1.076   0.008  0.00  0.00     0.012 A 
ATOM     12  C3  <0> d          -1.218   1.750   0.017  0.00  0.00     0.037 A 
ATOM     13  C2  <0> d          -1.237   3.137   0.031  0.00  0.00     0.068 A 
ATOM     14  C7  <0> d          -0.043   3.844   0.024  0.00  0.00     0.037 A 
ATOM     15  C6  <0> d           1.160   3.165   0.008  0.00  0.00     0.012 A 
BRANCH  13  16
ATOM     16  O1  <0> d          -2.422   3.802   0.045  0.00  0.00    -0.356 OA
ATOM     17  C1  <0> d          -3.611   3.009   0.052  0.00  0.00     0.210 C 
ENDBRANCH  13  16
ENDBRANCH   1  10
BRANCH   3  18
ATOM     18  C12 <0> d           4.741   1.597  -3.053  0.00  0.00    -0.010 A 
ATOM     19  C17 <0> d           5.993   2.154  -3.311  0.00  0.00     0.013 A 
ATOM     20  C16 <0> d           6.488   2.166  -4.599  0.00  0.00     0.001 A 
ATOM     21  C15 <0> d           5.745   1.627  -5.633  0.00  0.00     0.000 A 
ATOM     22  C14 <0> d           4.502   1.073  -5.384  0.00  0.00     0.001 A 
ATOM     23  C13 <0> d           3.999   1.050  -4.099  0.00  0.00     0.013 A 
ENDBRANCH   3  18
TORSDOF 3
