REMARK  7 active torsions:
REMARK  status: ('A' for Active; 'I' for Inactive)
REMARK    1  A    between atoms: C6_6  and  N1_8 
REMARK       I    between atoms: N1_8  and  C8_9 
REMARK    2  A    between atoms: C8_9  and  C9_11 
REMARK    3  A    between atoms: C9_11  and  C10_12 
REMARK    4  A    between atoms: C9_11  and  N2_16 
REMARK    5  A    between atoms: C10_12  and  C11_13 
REMARK    6  A    between atoms: N2_16  and  S1_17 
REMARK    7  A    between atoms: S1_17  and  C14_20 
ROOT
ATOM      1  C9  <0> d          -1.554   3.421  -0.054  0.00  0.00     0.185 C 
ENDROOT
BRANCH   1   2
ATOM      2  C8  <0> d          -1.490   1.970  -0.457  0.00  0.00     0.245 C 
ATOM      3  N1  <0> d          -0.308   1.414  -0.789  0.00  0.00    -0.325 N 
ATOM      4  H9  <0> d           0.620   1.997  -0.693  0.00  0.00     0.169 HD
ATOM      5  O1  <0> d          -2.503   1.302  -0.482  0.00  0.00    -0.271 OA
BRANCH   3   6
ATOM      6  C6  <0> d          -0.262   0.096  -1.257  0.00  0.00     0.041 A 
ATOM      7  C5  <0> d           0.710  -0.282  -2.174  0.00  0.00    -0.035 A 
ATOM      8  C4  <0> d           0.753  -1.584  -2.634  0.00  0.00     0.009 A 
ATOM      9  C23 <0> d           1.716   0.725  -2.666  0.00  0.00     0.050 C 
ATOM     10  C3  <0> d          -0.169  -2.510  -2.182  0.00  0.00     0.007 A 
ATOM     11  C2  <0> d          -1.138  -2.135  -1.268  0.00  0.00    -0.060 A 
ATOM     12  C1  <0> d          -2.142  -3.147  -0.778  0.00  0.00     0.048 C 
ATOM     13  C7  <0> d          -1.184  -0.837  -0.801  0.00  0.00     0.037 A 
ENDBRANCH   3   6
ENDBRANCH   1   2
BRANCH   1  14
ATOM     14  C10 <0> d          -0.679   3.647   1.180  0.00  0.00     0.039 C 
BRANCH  14  15
ATOM     15  C11 <0> d          -0.639   5.140   1.510  0.00  0.00    -0.020 C 
ATOM     16  C12 <0> d           0.121   5.352   2.822  0.00  0.00     0.009 C 
ATOM     17  C13 <0> d           0.070   5.893   0.383  0.00  0.00     0.009 C 
ENDBRANCH  14  15
ENDBRANCH   1  14
BRANCH   1  18
ATOM     18  N2  <0> d          -2.940   3.781   0.256  0.00  0.00    -0.302 N 
ATOM     19  H19 <0> d          -3.557   3.112   0.874  0.00  0.00     0.173 HD
BRANCH  18  20
ATOM     20  S1  <0> d          -3.656   5.059  -0.516  0.00  0.00     0.259 S 
ATOM     21  O2  <0> d          -5.004   5.100  -0.068  0.00  0.00    -0.201 OA
ATOM     22  O3  <0> d          -2.773   6.163  -0.379  0.00  0.00    -0.201 OA
BRANCH  20  23
ATOM     23  C14 <0> d          -3.709   4.666  -2.233  0.00  0.00     0.080 A 
ATOM     24  C19 <0> d          -2.669   5.027  -3.042  0.00  0.00     0.038 A 
ATOM     25  C18 <0> d          -2.708   4.711  -4.404  0.00  0.00    -0.008 A 
ATOM     26  C17 <0> d          -3.822   4.034  -4.935  0.00  0.00     0.045 A 
ATOM     27  C20 <0> d          -1.608   5.077  -5.298  0.00  0.00     0.019 A 
ATOM     28  C16 <0> d          -4.872   3.681  -4.093  0.00  0.00     0.032 A 
ATOM     29  N3  <0> d          -3.858   3.729  -6.279  0.00  0.00    -0.323 N 
ATOM     30  C15 <0> d          -4.809   3.998  -2.753  0.00  0.00     0.027 A 
ATOM     31  C22 <0> d          -2.842   4.070  -7.093  0.00  0.00     0.245 A 
ATOM     32  H2  <0> d          -4.726   3.201  -6.700  0.00  0.00     0.169 HD
ATOM     33  C21 <0> d          -1.703   4.749  -6.611  0.00  0.00     0.075 A 
ATOM     34  O4  <0> d          -2.908   3.784  -8.276  0.00  0.00    -0.268 OA
ENDBRANCH  20  23
ENDBRANCH  18  20
ENDBRANCH   1  18
TORSDOF 7
