REMARK  8 active torsions:
REMARK  status: ('A' for Active; 'I' for Inactive)
REMARK    1  A    between atoms: C8_9  and  C17_20 
REMARK    2  A    between atoms: C9_10  and  S1_11 
REMARK    3  A    between atoms: S1_11  and  C10_12 
REMARK    4  A    between atoms: C10_12  and  C11_13 
REMARK    5  A    between atoms: C17_20  and  C18_21 
REMARK    6  A    between atoms: C18_21  and  C19_22 
REMARK    7  A    between atoms: C18_21  and  N2_24 
REMARK    8  A    between atoms: C19_22  and  O1_23 
ROOT
ATOM      1  C1  <0> d          -0.392   1.428   0.056  0.00  0.00     0.157 C 
ATOM      2  N1  <0> d          -0.166  -0.019   0.023  0.00  0.00    -0.345 N 
ATOM      3  C2  <0> d          -0.204  -0.803  -1.114  0.00  0.00     0.045 A 
ATOM      4  C3  <0> d          -0.440  -0.528  -2.455  0.00  0.00     0.030 A 
ATOM      5  C4  <0> d          -0.409  -1.550  -3.380  0.00  0.00     0.002 A 
ATOM      6  C5  <0> d          -0.144  -2.854  -2.986  0.00  0.00     0.001 A 
ATOM      7  C6  <0> d           0.091  -3.147  -1.672  0.00  0.00     0.014 A 
ATOM      8  C7  <0> d           0.065  -2.127  -0.718  0.00  0.00    -0.000 A 
ATOM      9  C8  <0> d           0.267  -2.086   0.731  0.00  0.00    -0.010 A 
ATOM     10  C9  <0> d           0.121  -0.797   1.114  0.00  0.00     0.079 A 
ENDROOT
BRANCH   9  11
ATOM     11  C17 <0> d           0.583  -3.258   1.625  0.00  0.00     0.077 C 
BRANCH  11  12
ATOM     12  C18 <0> d           2.100  -3.428   1.725  0.00  0.00     0.211 C 
BRANCH  12  13
ATOM     13  C19 <0> d           2.424  -4.536   2.729  0.00  0.00     0.197 C 
BRANCH  13  14
ATOM     14  O1  <0> d           3.839  -4.617   2.909  0.00  0.00    -0.399 OA
ATOM     15  H19 <0> d           4.118  -5.300   3.534  0.00  0.00     0.209 HD
ENDBRANCH  13  14
ENDBRANCH  12  13
BRANCH  12  16
ATOM     16  N2  <0> d           2.640  -3.788   0.407  0.00  0.00    -0.073 N 
ATOM     17  H20 <0> d           3.641  -3.901   0.473  0.00  0.00     0.274 HD
ATOM     18  H21 <0> d           2.224  -4.654   0.098  0.00  0.00     0.274 HD
ATOM     19  H22 <0> d           2.427  -3.058  -0.255  0.00  0.00     0.274 HD
ENDBRANCH  12  16
ENDBRANCH  11  12
ENDBRANCH   9  11
BRANCH  10  20
ATOM     20  S1  <0> d           0.273  -0.208   2.768  0.00  0.00    -0.107 SA
BRANCH  20  21
ATOM     21  C10 <0> d          -1.427  -0.230   3.400  0.00  0.00     0.119 C 
BRANCH  21  22
ATOM     22  C11 <0> d          -1.457   0.372   4.781  0.00  0.00    -0.048 A 
ATOM     23  C16 <0> d          -1.663   1.730   4.939  0.00  0.00     0.009 A 
ATOM     24  C15 <0> d          -1.696   2.281   6.205  0.00  0.00     0.024 A 
ATOM     25  C14 <0> d          -1.513   1.476   7.315  0.00  0.00     0.034 A 
ATOM     26  C13 <0> d          -1.302   0.118   7.157  0.00  0.00     0.024 A 
ATOM     27 Cl1  <0> d          -1.549   2.169   8.906  0.00  0.00    -0.084 Cl
ATOM     28  C12 <0> d          -1.274  -0.433   5.890  0.00  0.00     0.009 A 
ENDBRANCH  21  22
ENDBRANCH  20  21
ENDBRANCH  10  20
TORSDOF 8
