REMARK  5 active torsions:
REMARK  status: ('A' for Active; 'I' for Inactive)
REMARK    1  A    between atoms: C2_2  and  C3_3 
REMARK    2  A    between atoms: C4_5  and  C6_8 
REMARK    3  A    between atoms: C6_8  and  N2_9 
REMARK       I    between atoms: N3_12  and  C11_15 
REMARK       I    between atoms: C11_15  and  N4_17 
REMARK    4  A    between atoms: N4_17  and  C12_18 
REMARK    5  A    between atoms: C12_18  and  C13_19 
REMARK       I    between atoms: C13_19  and  N5_21 
ROOT
ATOM      1  N2  <0> d          -4.980  -0.362  -2.456  0.00  0.00     0.097 N 
ATOM      2  C7  <0> d          -5.904   0.141  -1.431  0.00  0.00     0.292 C 
ATOM      3  C8  <0> d          -6.452   1.504  -1.867  0.00  0.00     0.158 C 
ATOM      4  N3  <0> d          -7.029   1.368  -3.212  0.00  0.00    -0.331 N 
ATOM      5  C9  <0> d          -6.209   0.745  -4.262  0.00  0.00     0.158 C 
ATOM      6  C10 <0> d          -5.671  -0.589  -3.732  0.00  0.00     0.292 C 
ATOM      7  C11 <0> d          -8.278   1.802  -3.477  0.00  0.00     0.318 C 
ATOM      8  O1  <0> d          -8.976   2.228  -2.577  0.00  0.00    -0.247 OA
ATOM      9  N4  <0> d          -8.751   1.765  -4.738  0.00  0.00    -0.334 N 
ATOM     10  H17 <0> d          -8.222   1.359  -5.443  0.00  0.00     0.164 HD
ENDROOT
BRANCH   9  11
ATOM     11  C12 <0> d         -10.065   2.337  -5.045  0.00  0.00     0.227 C 
BRANCH  11  12
ATOM     12  C13 <0> d         -10.356   2.167  -6.513  0.00  0.00     0.236 C 
ATOM     13  O2  <0> d          -9.546   1.622  -7.233  0.00  0.00    -0.272 OA
ATOM     14  N5  <0> d         -11.517   2.621  -7.027  0.00  0.00    -0.359 N 
ATOM     15  C14 <0> d         -11.800   2.456  -8.455  0.00  0.00     0.152 C 
ATOM     16  C15 <0> d         -12.495   3.279  -6.157  0.00  0.00     0.152 C 
ENDBRANCH  11  12
ENDBRANCH   9  11
BRANCH   1  17
ATOM     17  C6  <0> d          -4.302  -1.583  -2.000  0.00  0.00     0.332 C 
BRANCH  17  18
ATOM     18  C4  <0> d          -3.409  -1.255  -0.831  0.00  0.00     0.070 A 
ATOM     19  N1  <0> d          -2.183  -0.805  -1.006  0.00  0.00    -0.248 NA
ATOM     20  C3  <0> d          -1.410  -0.520   0.013  0.00  0.00     0.075 A 
ATOM     21  S1  <0> d          -2.377  -0.884   1.342  0.00  0.00    -0.085 SA
ATOM     22  C5  <0> d          -3.832  -1.411   0.450  0.00  0.00     0.080 A 
BRANCH  20  23
ATOM     23  C2  <0> d           0.004  -0.001  -0.002  0.00  0.00     0.062 C 
ATOM     24  C1  <0> d          -0.015   1.529   0.001  0.00  0.00     0.012 C 
ENDBRANCH  20  23
ENDBRANCH  17  18
ENDBRANCH   1  17
TORSDOF 5
