REMARK  6 active torsions:
REMARK  status: ('A' for Active; 'I' for Inactive)
REMARK    1  A    between atoms: C2_2  and  C3_3 
REMARK    2  A    between atoms: C3_3  and  C4_4 
REMARK    3  A    between atoms: N1_7  and  C9_10 
REMARK    4  A    between atoms: C9_10  and  C10_11 
REMARK    5  A    between atoms: C11_13  and  N4_20 
REMARK    6  A    between atoms: N4_20  and  N5_21 
ROOT
ATOM      1  C10 <0> d          -3.761  -6.447  -1.368  0.00  0.00     0.155 A 
ATOM      2  N2  <0> d          -4.361  -6.723  -0.224  0.00  0.00    -0.212 NA
ATOM      3  C11 <0> d          -5.622  -7.122  -0.168  0.00  0.00     0.152 A 
ATOM      4  C12 <0> d          -6.360  -7.259  -1.376  0.00  0.00     0.047 A 
ATOM      5  C13 <0> d          -7.736  -7.674  -1.581  0.00  0.00     0.025 A 
ATOM      6  C14 <0> d          -8.224  -7.730  -2.830  0.00  0.00     0.053 A 
ATOM      7  S1  <0> d          -6.845  -7.221  -3.839  0.00  0.00    -0.081 SA
ATOM      8  C15 <0> d          -5.651  -6.947  -2.557  0.00  0.00     0.113 A 
ATOM      9  N3  <0> d          -4.394  -6.551  -2.520  0.00  0.00    -0.224 NA
ENDROOT
BRANCH   1  10
ATOM     10  C9  <0> d          -2.322  -5.998  -1.355  0.00  0.00     0.315 C 
BRANCH  10  11
ATOM     11  N1  <0> d          -2.267  -4.534  -1.243  0.00  0.00    -0.064 N 
ATOM     12  C6  <0> d          -0.873  -4.089  -1.351  0.00  0.00     0.235 C 
ATOM     13  C5  <0> d          -0.817  -2.560  -1.316  0.00  0.00     0.032 C 
ATOM     14  C4  <0> d          -1.413  -2.063   0.004  0.00  0.00    -0.011 C 
ATOM     15  C8  <0> d          -2.842  -2.596   0.141  0.00  0.00     0.032 C 
ATOM     16  C7  <0> d          -2.822  -4.123   0.052  0.00  0.00     0.235 C 
ATOM     17  H24 <0> d          -2.810  -4.121  -1.987  0.00  0.00     0.280 HD
BRANCH  14  18
ATOM     18  C3  <0> d          -1.433  -0.534   0.013  0.00  0.00     0.004 C 
BRANCH  18  19
ATOM     19  C2  <0> d           0.002  -0.004   0.002  0.00  0.00    -0.004 C 
ATOM     20  C1  <0> d          -0.019   1.526   0.010  0.00  0.00     0.005 C 
ENDBRANCH  18  19
ENDBRANCH  14  18
ENDBRANCH  10  11
ENDBRANCH   1  10
BRANCH   3  21
ATOM     21  N4  <0> d          -6.214  -7.402   1.050  0.00  0.00    -0.307 N 
ATOM     22  H21 <0> d          -7.139  -7.693   1.084  0.00  0.00     0.182 HD
BRANCH  21  23
ATOM     23  N5  <0> d          -5.498  -7.267   2.205  0.00  0.00    -0.248 NA
ATOM     24  H22 <0> d          -5.121  -6.335   2.291  0.00  0.00     0.143 HD
ATOM     25  H23 <0> d          -6.059  -7.505   3.009  0.00  0.00     0.143 HD
ENDBRANCH  21  23
ENDBRANCH   3  21
TORSDOF 6
