REMARK  5 active torsions:
REMARK  status: ('A' for Active; 'I' for Inactive)
REMARK    1  A    between atoms: C2_2  and  C3_3 
REMARK    2  A    between atoms: C2_2  and  N1_11 
REMARK    3  A    between atoms: C3_3  and  C4_4 
REMARK    4  A    between atoms: N1_11  and  C10_12 
REMARK    5  A    between atoms: C10_12  and  C11_13 
ROOT
ATOM      1  N1  <0> d          -1.507  -0.412   0.148  0.00  0.00    -0.069 N 
ATOM      2  H12 <0> d          -1.502  -1.409   0.302  0.00  0.00     0.277 HD
ATOM      3  H26 <0> d          -2.056   0.036   0.866  0.00  0.00     0.277 HD
ENDROOT
BRANCH   1   4
ATOM      4  C2  <0> d          -0.131   0.098   0.193  0.00  0.00     0.186 C 
ATOM      5  C1  <0> d          -0.148   1.624   0.084  0.00  0.00     0.040 C 
BRANCH   4   6
ATOM      6  C3  <0> d           0.522  -0.311   1.515  0.00  0.00     0.071 C 
BRANCH   6   7
ATOM      7  C4  <0> d           0.651  -1.812   1.569  0.00  0.00    -0.056 A 
ATOM      8  C9  <0> d           1.791  -2.425   1.083  0.00  0.00     0.008 A 
ATOM      9  C8  <0> d           1.911  -3.801   1.136  0.00  0.00     0.019 A 
ATOM     10  C7  <0> d           0.887  -4.565   1.666  0.00  0.00     0.011 A 
ATOM     11  C6  <0> d          -0.256  -3.951   2.147  0.00  0.00     0.019 A 
ATOM     12 Br1  <0> d           1.049  -6.448   1.733  0.00  0.00    -0.051 Br
ATOM     13  C5  <0> d          -0.373  -2.575   2.098  0.00  0.00     0.008 A 
ENDBRANCH   6   7
ENDBRANCH   4   6
ENDBRANCH   1   4
BRANCH   1  14
ATOM     14  C10 <0> d          -2.093  -0.124  -1.168  0.00  0.00     0.266 C 
BRANCH  14  15
ATOM     15  C11 <0> d          -3.482  -0.760  -1.259  0.00  0.00     0.213 C 
ATOM     16  N2  <0> d          -4.115  -0.373  -2.525  0.00  0.00    -0.069 N 
ATOM     17  C15 <0> d          -5.477  -0.916  -2.587  0.00  0.00     0.235 C 
ATOM     18  C16 <0> d          -4.169   1.092  -2.617  0.00  0.00     0.270 C 
ATOM     19  H27 <0> d          -3.573  -0.737  -3.295  0.00  0.00     0.280 HD
ATOM     20  C14 <0> d          -5.421  -2.445  -2.575  0.00  0.00     0.028 C 
ATOM     21  C13 <0> d          -4.741  -2.915  -1.286  0.00  0.00     0.004 C 
ATOM     22  C12 <0> d          -3.349  -2.283  -1.195  0.00  0.00     0.035 C 
ENDBRANCH  14  15
ENDBRANCH   1  14
TORSDOF 5
