REMARK  4 active torsions:
REMARK  status: ('A' for Active; 'I' for Inactive)
REMARK    1  A    between atoms: C2_2  and  C3_3 
REMARK    2  A    between atoms: C2_2  and  S1_15 
REMARK    3  A    between atoms: C3_3  and  C4_5 
REMARK    4  A    between atoms: S1_15  and  C12_16 
ROOT
ATOM      1  C3  <0> d          -0.749   3.086   1.275  0.00  0.00     0.175 C 
ATOM      2  O1  <0> d          -1.714   3.682   0.843  0.00  0.00    -0.291 OA
ENDROOT
BRANCH   1   3
ATOM      3  C2  <0> d          -0.729   1.579   1.267  0.00  0.00     0.126 C 
ATOM      4  C1  <0> d          -0.013   1.086   0.008  0.00  0.00     0.030 C 
BRANCH   3   5
ATOM      5  S1  <0> d          -2.427   0.953   1.280  0.00  0.00    -0.076 SA
BRANCH   5   6
ATOM      6  C12 <0> d          -2.114  -0.776   1.419  0.00  0.00     0.209 A 
ATOM      7  N5  <0> d          -3.043  -1.759   1.475  0.00  0.00    -0.230 N 
ATOM      8  N4  <0> d          -2.310  -2.954   1.582  0.00  0.00    -0.044 NA
ATOM      9  C13 <0> d          -4.500  -1.611   1.433  0.00  0.00     0.184 C 
ATOM     10  N3  <0> d          -1.063  -2.628   1.582  0.00  0.00    -0.022 NA
ATOM     11  N2  <0> d          -0.934  -1.354   1.482  0.00  0.00    -0.102 NA
ENDBRANCH   5   6
ENDBRANCH   3   5
ENDBRANCH   1   3
BRANCH   1  12
ATOM     12  C4  <0> d           0.358   3.807   1.787  0.00  0.00     0.039 A 
ATOM     13  C7  <0> d           0.502   5.274   1.863  0.00  0.00     0.006 A 
ATOM     14  C6  <0> d           1.759   5.506   2.444  0.00  0.00     0.043 A 
ATOM     15  C8  <0> d          -0.314   6.345   1.512  0.00  0.00     0.014 A 
ATOM     16  N1  <0> d           2.338   4.278   2.693  0.00  0.00    -0.364 N 
ATOM     17  C11 <0> d           2.182   6.814   2.652  0.00  0.00     0.030 A 
ATOM     18  C5  <0> d           1.520   3.279   2.309  0.00  0.00     0.104 A 
ATOM     19  H2  <0> d           3.214   4.151   3.090  0.00  0.00     0.165 HD
ATOM     20  C10 <0> d           1.367   7.866   2.295  0.00  0.00     0.002 A 
ATOM     21  C9  <0> d           0.123   7.635   1.727  0.00  0.00     0.001 A 
ENDBRANCH   1  12
TORSDOF 4
