REMARK  14 active torsions:
REMARK  status: ('A' for Active; 'I' for Inactive)
REMARK    1  A    between atoms: C2_2  and  C3_3 
REMARK    2  A    between atoms: C3_3  and  C4_4 
REMARK    3  A    between atoms: C4_4  and  C5_5 
REMARK    4  A    between atoms: C5_5  and  C6_6 
REMARK    5  A    between atoms: C6_6  and  C7_7 
REMARK    6  A    between atoms: C6_6  and  O5_25 
REMARK    7  A    between atoms: C8_8  and  C9_9 
REMARK    8  A    between atoms: C10_10  and  O4_24 
REMARK    9  A    between atoms: C13_14  and  C14_15 
REMARK   10  A    between atoms: C14_15  and  C15_16 
REMARK   11  A    between atoms: C16_17  and  C17_18 
REMARK   12  A    between atoms: C17_18  and  C18_19 
REMARK   13  A    between atoms: C18_19  and  C19_20 
REMARK   14  A    between atoms: C19_20  and  C20_21 
ROOT
ATOM      1  C9  <0> d          -4.442   1.532   1.885  0.00  0.00     0.048 C 
ATOM      2  C10 <0> d          -4.173   0.465   2.976  0.00  0.00     0.133 C 
ATOM      3  C11 <0> d          -3.123   1.165   3.873  0.00  0.00     0.111 C 
ATOM      4  C12 <0> d          -2.241   1.927   2.900  0.00  0.00     0.134 C 
ATOM      5  O1  <0> d          -1.100   2.274   3.089  0.00  0.00    -0.297 OA
ATOM      6  C13 <0> d          -3.057   2.170   1.647  0.00  0.00     0.069 C 
ENDROOT
BRANCH   1   7
ATOM      7  C8  <0> d          -4.949   0.884   0.623  0.00  0.00    -0.020 C 
ATOM      8  C7  <0> d          -6.075   1.286   0.087  0.00  0.00     0.001 C 
BRANCH   8   9
ATOM      9  C6  <0> d          -6.583   0.637  -1.175  0.00  0.00     0.140 C 
BRANCH   9  10
ATOM     10  C5  <0> d          -7.955   0.014  -0.911  0.00  0.00     0.036 C 
BRANCH  10  11
ATOM     11  C4  <0> d          -8.415  -0.751  -2.154  0.00  0.00     0.003 C 
BRANCH  11  12
ATOM     12  C3  <0> d          -9.787  -1.374  -1.891  0.00  0.00    -0.000 C 
BRANCH  12  13
ATOM     13  C2  <0> d         -10.247  -2.139  -3.134  0.00  0.00    -0.005 C 
ATOM     14  C1  <0> d         -11.619  -2.762  -2.870  0.00  0.00     0.005 C 
ENDBRANCH  12  13
ENDBRANCH  11  12
ENDBRANCH  10  11
ENDBRANCH   9  10
BRANCH   9  15
ATOM     15  O5  <0> d          -6.697   1.622  -2.204  0.00  0.00    -0.392 OA
ATOM     16  H31 <0> d          -5.808   2.181  -2.532  0.00  0.00     0.210 HD
ENDBRANCH   9  15
ENDBRANCH   8   9
ENDBRANCH   1   7
BRANCH   6  17
ATOM     17  C14 <0> d          -2.378   1.512   0.445  0.00  0.00     0.040 C 
BRANCH  17  18
ATOM     18  C15 <0> d          -1.070   2.207   0.164  0.00  0.00    -0.030 C 
ATOM     19  C16 <0> d           0.037   1.511   0.085  0.00  0.00    -0.031 C 
BRANCH  19  20
ATOM     20  C17 <0> d          -0.016   0.005   0.104  0.00  0.00     0.027 C 
BRANCH  20  21
ATOM     21  C18 <0> d           0.754  -0.548  -1.096  0.00  0.00     0.014 C 
BRANCH  21  22
ATOM     22  C19 <0> d           0.700  -2.077  -1.077  0.00  0.00     0.113 C 
BRANCH  22  23
ATOM     23  C20 <0> d           1.460  -2.621  -2.260  0.00  0.00     0.172 C 
ATOM     24  O2  <0> d           1.990  -1.864  -3.038  0.00  0.00    -0.648 OA
ATOM     25  O3  <0> d           1.547  -3.947  -2.449  0.00  0.00    -0.648 OA
ENDBRANCH  22  23
ENDBRANCH  21  22
ENDBRANCH  20  21
ENDBRANCH  19  20
ENDBRANCH  17  18
ENDBRANCH   6  17
BRANCH   2  26
ATOM     26  O4  <0> d          -3.635  -0.727   2.399  0.00  0.00    -0.394 OA
ATOM     27  H30 <0> d          -3.388  -1.585   3.041  0.00  0.00     0.210 HD
ENDBRANCH   2  26
TORSDOF 14
