REMARK  6 active torsions:
REMARK  status: ('A' for Active; 'I' for Inactive)
REMARK    1  A    between atoms: C4_4  and  N1_5 
REMARK       I    between atoms: N2_6  and  C5_8 
REMARK       I    between atoms: C5_8  and  N3_9 
REMARK       I    between atoms: C5_8  and  N4_18 
REMARK    2  A    between atoms: N3_9  and  C6_10 
REMARK    3  A    between atoms: C9_13  and  O1_16 
REMARK    4  A    between atoms: N4_18  and  C13_19 
REMARK    5  A    between atoms: C16_22  and  O3_27 
REMARK    6  A    between atoms: C18_24  and  O2_25 
ROOT
ATOM      1  C1  <0> d          -2.072   0.386   1.017  0.00  0.00     0.058 C 
ATOM      2  C2  <0> d          -1.230  -0.721   0.437  0.00  0.00     0.000 A 
ATOM      3  C3  <0> d          -0.986  -0.997  -0.872  0.00  0.00     0.065 A 
ATOM      4  C4  <0> d          -0.168  -2.084  -1.111  0.00  0.00     0.130 A 
ATOM      5  N2  <0> d           0.286  -2.736  -0.048  0.00  0.00    -0.099 N 
ATOM      6  S1  <0> d          -0.363  -1.905   1.250  0.00  0.00     0.007 SA
ATOM      7  C5  <0> d           1.097  -3.825  -0.021  0.00  0.00     0.720 C 
ATOM      8  N3  <0> d           2.458  -3.669   0.154  0.00  0.00    -0.189 N 
ATOM      9  N4  <0> d           0.586  -5.030  -0.160  0.00  0.00    -0.061 NA
ATOM     10  H22 <0> d           2.825  -2.791   0.344  0.00  0.00     0.184 HD
ENDROOT
BRANCH   8  11
ATOM     11  C6  <0> d           3.308  -4.777   0.057  0.00  0.00     0.049 A 
ATOM     12  C11 <0> d           4.441  -4.855   0.856  0.00  0.00     0.033 A 
ATOM     13  C10 <0> d           5.277  -5.951   0.764  0.00  0.00     0.039 A 
ATOM     14  C9  <0> d           4.991  -6.967  -0.136  0.00  0.00     0.068 A 
ATOM     15  C8  <0> d           3.862  -6.887  -0.939  0.00  0.00     0.039 A 
ATOM     16  C7  <0> d           3.023  -5.795  -0.843  0.00  0.00     0.033 A 
BRANCH  14  17
ATOM     17  O1  <0> d           5.816  -8.043  -0.230  0.00  0.00    -0.356 OA
ATOM     18  C12 <0> d           6.960  -8.061   0.626  0.00  0.00     0.210 C 
ENDBRANCH  14  17
ENDBRANCH   8  11
BRANCH   9  19
ATOM     19  C13 <0> d          -0.772  -5.196  -0.213  0.00  0.00     0.111 A 
ATOM     20  C18 <0> d          -1.356  -5.883  -1.285  0.00  0.00     0.100 A 
ATOM     21  C17 <0> d          -2.728  -6.053  -1.328  0.00  0.00     0.077 A 
ATOM     22  C16 <0> d          -3.525  -5.532  -0.319  0.00  0.00     0.092 A 
ATOM     23  C15 <0> d          -2.950  -4.844   0.742  0.00  0.00     0.069 A 
ATOM     24  C14 <0> d          -1.581  -4.675   0.799  0.00  0.00     0.062 A 
ATOM     25 Cl1  <0> d          -3.955  -4.196   2.001  0.00  0.00    -0.081 Cl
BRANCH  20  26
ATOM     26  O2  <0> d          -0.575  -6.388  -2.277  0.00  0.00    -0.353 OA
ATOM     27  C19 <0> d          -1.239  -7.077  -3.338  0.00  0.00     0.210 C 
ENDBRANCH  20  26
BRANCH  22  28
ATOM     28  O3  <0> d          -4.874  -5.696  -0.368  0.00  0.00    -0.354 OA
ATOM     29  C20 <0> d          -5.400  -6.412  -1.487  0.00  0.00     0.210 C 
ENDBRANCH  22  28
ENDBRANCH   9  19
BRANCH   4  30
ATOM     30  N1  <0> d           0.163  -2.476  -2.403  0.00  0.00    -0.384 N 
ATOM     31  H5  <0> d          -0.239  -2.029  -3.164  0.00  0.00     0.157 HD
ATOM     32  H21 <0> d           0.797  -3.197  -2.544  0.00  0.00     0.157 HD
ENDBRANCH   4  30
TORSDOF 6
