REMARK  7 active torsions:
REMARK  status: ('A' for Active; 'I' for Inactive)
REMARK    1  A    between atoms: N1_2  and  C3_4 
REMARK    2  A    between atoms: C5_6  and  C8_10 
REMARK    3  A    between atoms: C8_10  and  N3_11 
REMARK       I    between atoms: N3_11  and  C9_12 
REMARK    4  A    between atoms: C9_12  and  C10_14 
REMARK       I    between atoms: C10_14  and  N4_16 
REMARK    5  A    between atoms: N4_16  and  C11_17 
REMARK    6  A    between atoms: C15_21  and  C17_23 
REMARK    7  A    between atoms: C17_23  and  N5_24 
ROOT
ATOM      1  C10 <0> d          -2.987  -6.602  -2.502  0.00  0.00     0.313 C 
ATOM      2  O2  <0> d          -3.917  -5.823  -2.463  0.00  0.00    -0.262 OA
ATOM      3  N4  <0> d          -3.221  -7.929  -2.540  0.00  0.00    -0.319 N 
ATOM      4  H13 <0> d          -2.482  -8.549  -2.639  0.00  0.00     0.169 HD
ENDROOT
BRANCH   1   5
ATOM      5  C9  <0> d          -1.584  -6.091  -2.506  0.00  0.00     0.309 C 
ATOM      6  N3  <0> d          -1.351  -4.764  -2.467  0.00  0.00    -0.349 N 
ATOM      7  H12 <0> d          -2.094  -4.141  -2.437  0.00  0.00     0.163 HD
ATOM      8  O1  <0> d          -0.655  -6.870  -2.545  0.00  0.00    -0.262 OA
BRANCH   6   9
ATOM      9  C8  <0> d           0.026  -4.262  -2.472  0.00  0.00     0.161 C 
BRANCH   9  10
ATOM     10  C5  <0> d           0.011  -2.756  -2.423  0.00  0.00    -0.036 A 
ATOM     11  C4  <0> d           0.022  -2.087  -1.213  0.00  0.00     0.057 A 
ATOM     12  C3  <0> d           0.009  -0.696  -1.209  0.00  0.00     0.102 A 
ATOM     13  N2  <0> d          -0.019  -0.019  -2.346  0.00  0.00    -0.352 N 
ATOM     14  C7  <0> d          -0.024  -0.631  -3.515  0.00  0.00     0.090 A 
ATOM     15  H23 <0> d          -0.032   0.951  -2.319  0.00  0.00     0.166 HD
ATOM     16  C6  <0> d          -0.012  -2.009  -3.594  0.00  0.00     0.026 A 
BRANCH  12  17
ATOM     17  N1  <0> d           0.020  -0.011   0.001  0.00  0.00    -0.376 N 
ATOM     18  C1  <0> d          -0.000   1.454   0.013  0.00  0.00     0.150 C 
ATOM     19  C2  <0> d           0.051  -0.754   1.263  0.00  0.00     0.150 C 
ENDBRANCH  12  17
ENDBRANCH   9  10
ENDBRANCH   6   9
ENDBRANCH   1   5
BRANCH   3  20
ATOM     20  C11 <0> d          -4.529  -8.412  -2.439  0.00  0.00     0.035 A 
ATOM     21  C16 <0> d          -5.579  -7.698  -3.002  0.00  0.00     0.038 A 
ATOM     22  C15 <0> d          -6.870  -8.181  -2.905  0.00  0.00    -0.036 A 
ATOM     23  C14 <0> d          -7.118  -9.367  -2.238  0.00  0.00     0.009 A 
ATOM     24  C13 <0> d          -6.075 -10.077  -1.672  0.00  0.00     0.003 A 
ATOM     25  C12 <0> d          -4.781  -9.603  -1.770  0.00  0.00     0.029 A 
BRANCH  22  26
ATOM     26  C17 <0> d          -8.009  -7.412  -3.522  0.00  0.00     0.189 C 
BRANCH  26  27
ATOM     27  N5  <0> d          -8.546  -6.464  -2.542  0.00  0.00    -0.277 N 
ATOM     28  N6  <0> d          -9.007  -6.779  -1.257  0.00  0.00    -0.185 NA
ATOM     29  C20 <0> d          -9.403  -5.673  -0.682  0.00  0.00     0.140 A 
ATOM     30  C19 <0> d          -9.215  -4.620  -1.584  0.00  0.00     0.040 A 
ATOM     31  C18 <0> d          -8.687  -5.134  -2.719  0.00  0.00     0.114 A 
ENDBRANCH  26  27
ENDBRANCH  22  26
ENDBRANCH   3  20
TORSDOF 7
