REMARK  9 active torsions:
REMARK  status: ('A' for Active; 'I' for Inactive)
REMARK    1  A    between atoms: O1_2  and  C2_3 
REMARK    2  A    between atoms: C2_3  and  C3_4 
REMARK    3  A    between atoms: C3_4  and  O2_5 
REMARK    4  A    between atoms: O2_5  and  C4_6 
REMARK    5  A    between atoms: C7_9  and  N1_12 
REMARK       I    between atoms: N1_12  and  C10_13 
REMARK    6  A    between atoms: C10_13  and  C11_15 
REMARK       I    between atoms: C11_15  and  N2_17 
REMARK    7  A    between atoms: N2_17  and  C12_18 
REMARK    8  A    between atoms: C12_18  and  C13_19 
REMARK    9  A    between atoms: N4_22  and  C16_24 
ROOT
ATOM      1  C11 <0> d           2.229  -9.859  -2.574  0.00  0.00     0.309 C 
ATOM      2  O4  <0> d           1.660 -10.637  -1.836  0.00  0.00    -0.262 OA
ATOM      3  N2  <0> d           2.839 -10.310  -3.688  0.00  0.00    -0.349 N 
ATOM      4  H13 <0> d           3.294  -9.689  -4.278  0.00  0.00     0.163 HD
ENDROOT
BRANCH   1   5
ATOM      5  C10 <0> d           2.255  -8.402  -2.247  0.00  0.00     0.313 C 
ATOM      6  N1  <0> d           1.646  -7.951  -1.133  0.00  0.00    -0.319 N 
ATOM      7  H12 <0> d           1.257  -8.579  -0.504  0.00  0.00     0.169 HD
ATOM      8  O3  <0> d           2.824  -7.625  -2.985  0.00  0.00    -0.262 OA
BRANCH   6   9
ATOM      9  C7  <0> d           1.574  -6.577  -0.883  0.00  0.00     0.035 A 
ATOM     10  C6  <0> d           1.458  -5.683  -1.940  0.00  0.00     0.032 A 
ATOM     11  C5  <0> d           1.387  -4.327  -1.693  0.00  0.00     0.039 A 
ATOM     12  C4  <0> d           1.431  -3.856  -0.388  0.00  0.00     0.069 A 
ATOM     13  C9  <0> d           1.552  -4.747   0.668  0.00  0.00     0.039 A 
ATOM     14  C8  <0> d           1.618  -6.104   0.423  0.00  0.00     0.032 A 
BRANCH  12  15
ATOM     15  O2  <0> d           1.361  -2.520  -0.145  0.00  0.00    -0.349 OA
BRANCH  15  16
ATOM     16  C3  <0> d           1.237  -1.660  -1.280  0.00  0.00     0.201 C 
BRANCH  16  17
ATOM     17  C2  <0> d           1.173  -0.205  -0.812  0.00  0.00     0.193 C 
BRANCH  17  18
ATOM     18  O1  <0> d           2.414   0.153  -0.200  0.00  0.00    -0.394 OA
ATOM     19  C1  <0> d           2.460   1.500   0.275  0.00  0.00     0.201 C 
ENDBRANCH  17  18
ENDBRANCH  16  17
ENDBRANCH  15  16
ENDBRANCH  12  15
ENDBRANCH   6   9
ENDBRANCH   1   5
BRANCH   3  20
ATOM     20  C12 <0> d           2.814 -11.740  -4.009  0.00  0.00     0.164 C 
BRANCH  20  21
ATOM     21  C13 <0> d           3.561 -11.979  -5.296  0.00  0.00    -0.004 A 
ATOM     22  C15 <0> d           4.882 -12.248  -5.411  0.00  0.00     0.129 A 
ATOM     23  N4  <0> d           5.158 -12.400  -6.726  0.00  0.00    -0.245 N 
ATOM     24  N3  <0> d           3.968 -12.208  -7.440  0.00  0.00    -0.180 NA
ATOM     25  C14 <0> d           3.012 -11.956  -6.582  0.00  0.00     0.149 A 
BRANCH  23  26
ATOM     26  C16 <0> d           6.413 -12.693  -7.277  0.00  0.00     0.058 A 
ATOM     27  C21 <0> d           6.557 -12.816  -8.653  0.00  0.00     0.031 A 
ATOM     28  C20 <0> d           7.795 -13.100  -9.193  0.00  0.00     0.002 A 
ATOM     29  C19 <0> d           8.890 -13.271  -8.366  0.00  0.00     0.000 A 
ATOM     30  C18 <0> d           8.749 -13.154  -6.995  0.00  0.00     0.002 A 
ATOM     31  C17 <0> d           7.513 -12.865  -6.449  0.00  0.00     0.031 A 
ENDBRANCH  23  26
ENDBRANCH  20  21
ENDBRANCH   3  20
TORSDOF 9
