REMARK  10 active torsions:
REMARK  status: ('A' for Active; 'I' for Inactive)
REMARK    1  A    between atoms: C2_2  and  O1_3 
REMARK    2  A    between atoms: O1_3  and  C3_4 
REMARK    3  A    between atoms: C5_6  and  C9_11 
REMARK    4  A    between atoms: C8_9  and  O2_10 
REMARK    5  A    between atoms: C10_12  and  C15_21 
REMARK    6  A    between atoms: N1_16  and  C13_17 
REMARK    7  A    between atoms: C13_17  and  C14_18 
REMARK    8  A    between atoms: C14_18  and  O4_19 
REMARK    9  A    between atoms: C15_21  and  C16_23 
REMARK   10  A    between atoms: C19_26  and  O7_30 
ROOT
ATOM      1  C9  <0> d          -0.665  -4.617  -0.023  0.00  0.00     0.161 A 
ATOM      2  C10 <0> d          -2.109  -4.989  -0.267  0.00  0.00     0.062 A 
ATOM      3  C11 <0> d          -2.196  -6.332  -0.125  0.00  0.00     0.187 A 
ATOM      4  C12 <0> d          -0.860  -6.873   0.205  0.00  0.00     0.281 A 
ATOM      5  O3  <0> d          -0.611  -8.047   0.394  0.00  0.00    -0.265 OA
ATOM      6  N1  <0> d           0.039  -5.872   0.267  0.00  0.00    -0.331 N 
ATOM      7  O5  <0> d          -3.325  -7.064  -0.263  0.00  0.00    -0.185 OA
ENDROOT
BRANCH   1   8
ATOM      8  C5  <0> d          -0.082  -3.969  -1.253  0.00  0.00    -0.028 A 
ATOM      9  C4  <0> d           0.206  -2.617  -1.248  0.00  0.00     0.049 A 
ATOM     10  C3  <0> d           0.742  -2.019  -2.378  0.00  0.00     0.102 A 
ATOM     11  C8  <0> d           0.984  -2.781  -3.516  0.00  0.00     0.099 A 
ATOM     12  C7  <0> d           0.699  -4.137  -3.512  0.00  0.00     0.040 A 
ATOM     13  C6  <0> d           0.164  -4.728  -2.382  0.00  0.00     0.012 A 
BRANCH  10  14
ATOM     14  O1  <0> d           1.025  -0.689  -2.375  0.00  0.00    -0.349 OA
BRANCH  14  15
ATOM     15  C2  <0> d           0.853   0.009  -1.140  0.00  0.00     0.171 C 
ATOM     16  C1  <0> d           1.180   1.490  -1.341  0.00  0.00     0.034 C 
ENDBRANCH  14  15
ENDBRANCH  10  14
BRANCH  11  17
ATOM     17  O2  <0> d           1.504  -2.198  -4.629  0.00  0.00    -0.358 OA
ATOM     18  H10 <0> d           2.471  -2.204  -4.661  0.00  0.00     0.217 HD
ENDBRANCH  11  17
ENDBRANCH   1   8
BRANCH   6  19
ATOM     19  C13 <0> d           1.466  -6.011   0.568  0.00  0.00     0.153 C 
BRANCH  19  20
ATOM     20  C14 <0> d           1.682  -5.892   2.079  0.00  0.00     0.184 C 
BRANCH  20  21
ATOM     21  O4  <0> d           1.047  -6.989   2.738  0.00  0.00    -0.399 OA
ATOM     22  H15 <0> d           1.144  -6.979   3.700  0.00  0.00     0.209 HD
ENDBRANCH  20  21
ENDBRANCH  19  20
ENDBRANCH   6  19
BRANCH   2  23
ATOM     23  C15 <0> d          -3.205  -4.072  -0.595  0.00  0.00     0.194 C 
ATOM     24  O6  <0> d          -3.014  -2.870  -0.588  0.00  0.00    -0.287 OA
BRANCH  23  25
ATOM     25  C16 <0> d          -4.539  -4.606  -0.932  0.00  0.00     0.021 A 
ATOM     26  C21 <0> d          -4.758  -5.211  -2.173  0.00  0.00    -0.045 A 
ATOM     27  C20 <0> d          -6.003  -5.714  -2.481  0.00  0.00     0.044 A 
ATOM     28  C22 <0> d          -3.633  -5.319  -3.169  0.00  0.00     0.049 C 
ATOM     29  C19 <0> d          -7.043  -5.609  -1.564  0.00  0.00     0.068 A 
ATOM     30  C18 <0> d          -6.830  -5.003  -0.331  0.00  0.00     0.038 A 
ATOM     31  C17 <0> d          -5.588  -4.503  -0.013  0.00  0.00     0.019 A 
BRANCH  29  32
ATOM     32  O7  <0> d          -8.269  -6.100  -1.874  0.00  0.00    -0.356 OA
ATOM     33  C23 <0> d          -9.320  -5.860  -0.936  0.00  0.00     0.210 C 
ENDBRANCH  29  32
ENDBRANCH  23  25
ENDBRANCH   2  23
TORSDOF 10
