REMARK  7 active torsions:
REMARK  status: ('A' for Active; 'I' for Inactive)
REMARK    1  A    between atoms: C4_5  and  C5_6 
REMARK    2  A    between atoms: C5_6  and  C6_7 
REMARK    3  A    between atoms: C5_6  and  S2_9 
REMARK    4  A    between atoms: C6_7  and  N1_8 
REMARK    5  A    between atoms: S2_9  and  C7_10 
REMARK    6  A    between atoms: C8_13  and  C12_18 
REMARK    7  A    between atoms: N4_14  and  C9_15 
ROOT
ATOM      1  C5  <0> d          -1.208  -0.883  -0.198  0.00  0.00     0.120 C 
ENDROOT
BRANCH   1   2
ATOM      2  C4  <0> d           0.033  -0.043  -0.358  0.00  0.00    -0.000 A 
ATOM      3  C1  <0> d           0.138   1.289  -0.591  0.00  0.00     0.035 A 
ATOM      4  C2  <0> d           1.395   1.852  -0.703  0.00  0.00     0.018 A 
ATOM      5  C3  <0> d           2.486   1.057  -0.577  0.00  0.00     0.069 A 
ATOM      6 Br1  <0> d           1.591   3.705  -1.028  0.00  0.00    -0.051 Br
ATOM      7  S1  <0> d           1.745  -0.542  -0.291  0.00  0.00    -0.104 SA
ENDBRANCH   1   2
BRANCH   1   8
ATOM      8  C6  <0> d          -1.204  -1.540   1.184  0.00  0.00     0.250 C 
BRANCH   8   9
ATOM      9  N1  <0> d          -1.304  -0.502   2.219  0.00  0.00    -0.078 N 
ATOM     10  H6  <0> d          -2.196  -0.037   2.144  0.00  0.00     0.274 HD
ATOM     11  H7  <0> d          -1.223  -0.927   3.131  0.00  0.00     0.274 HD
ATOM     12  H18 <0> d          -0.562   0.170   2.094  0.00  0.00     0.274 HD
ENDBRANCH   8   9
ENDBRANCH   1   8
BRANCH   1  13
ATOM     13  S2  <0> d          -1.238  -2.168  -1.478  0.00  0.00    -0.078 SA
BRANCH  13  14
ATOM     14  C7  <0> d          -2.844  -2.877  -1.333  0.00  0.00     0.192 A 
ATOM     15  N4  <0> d          -3.386  -3.831  -2.145  0.00  0.00    -0.306 N 
ATOM     16  C8  <0> d          -4.639  -4.071  -1.650  0.00  0.00     0.135 A 
ATOM     17  N3  <0> d          -4.804  -3.290  -0.620  0.00  0.00    -0.134 NA
ATOM     18  N2  <0> d          -3.749  -2.583  -0.428  0.00  0.00    -0.123 NA
BRANCH  15  19
ATOM     19  C9  <0> d          -2.756  -4.469  -3.304  0.00  0.00     0.093 A 
ATOM     20  C11 <0> d          -2.160  -3.555  -4.376  0.00  0.00     0.028 A 
ATOM     21  C10 <0> d          -1.238  -4.341  -3.442  0.00  0.00     0.028 A 
ENDBRANCH  15  19
BRANCH  16  22
ATOM     22  C12 <0> d          -5.644  -5.051  -2.199  0.00  0.00     0.057 A 
ATOM     23  C14 <0> d          -6.123  -6.167  -1.268  0.00  0.00     0.013 A 
ATOM     24  C13 <0> d          -7.059  -5.009  -1.620  0.00  0.00     0.013 A 
ENDBRANCH  16  22
ENDBRANCH  13  14
ENDBRANCH   1  13
TORSDOF 7
