REMARK  5 active torsions:
REMARK  status: ('A' for Active; 'I' for Inactive)
REMARK    1  A    between atoms: C2_2  and  C4_4 
REMARK    2  A    between atoms: C2_2  and  C9_12 
REMARK    3  A    between atoms: C4_4  and  N1_5 
REMARK       I    between atoms: N1_5  and  C5_6 
REMARK       I    between atoms: C5_6  and  N3_11 
REMARK    4  A    between atoms: N2_7  and  C6_8 
REMARK    5  A    between atoms: C6_8  and  C7_9 
ROOT
ATOM      1  C4  <0> d          -1.433  -0.534   0.013  0.00  0.00     0.151 C 
ENDROOT
BRANCH   1   2
ATOM      2  C2  <0> d           0.002  -0.004   0.002  0.00  0.00    -0.004 C 
ATOM      3  C1  <0> d          -0.019   1.526   0.010  0.00  0.00     0.021 C 
ATOM      4  C3  <0> d           0.742  -0.511   1.242  0.00  0.00     0.021 C 
BRANCH   2   5
ATOM      5  C9  <0> d           0.707  -0.490  -1.238  0.00  0.00    -0.049 A 
ATOM      6  C14 <0> d           2.024  -0.137  -1.467  0.00  0.00     0.009 A 
ATOM      7  C13 <0> d           2.673  -0.586  -2.602  0.00  0.00     0.019 A 
ATOM      8  C12 <0> d           2.001  -1.381  -3.513  0.00  0.00     0.011 A 
ATOM      9  C11 <0> d           0.682  -1.730  -3.286  0.00  0.00     0.019 A 
ATOM     10 Br1  <0> d           2.886  -1.991  -5.069  0.00  0.00    -0.051 Br
ATOM     11  C10 <0> d           0.036  -1.284  -2.148  0.00  0.00     0.009 A 
ENDBRANCH   2   5
ENDBRANCH   1   2
BRANCH   1  12
ATOM     12  N1  <0> d          -2.119  -0.061   1.218  0.00  0.00    -0.226 N 
ATOM     13  C5  <0> d          -3.429  -0.412   1.446  0.00  0.00     0.667 C 
ATOM     14  N2  <0> d          -4.039   0.008   2.519  0.00  0.00    -0.223 N 
ATOM     15  N3  <0> d          -4.095  -1.207   0.543  0.00  0.00    -0.235 N 
ATOM     16  H21 <0> d          -3.569   0.569   3.156  0.00  0.00     0.178 HD
ATOM     17  H15 <0> d          -3.640  -1.520  -0.255  0.00  0.00     0.174 HD
ATOM     18  H16 <0> d          -5.018  -1.455   0.705  0.00  0.00     0.174 HD
ATOM     19  H9  <0> d          -1.649   0.499   1.855  0.00  0.00     0.177 HD
BRANCH  14  20
ATOM     20  C6  <0> d          -5.434  -0.366   2.762  0.00  0.00     0.164 C 
BRANCH  20  21
ATOM     21  C7  <0> d          -5.899   0.244   4.059  0.00  0.00    -0.017 C 
ATOM     22  C8  <0> d          -6.971   0.997   4.081  0.00  0.00     0.008 C 
ENDBRANCH  20  21
ENDBRANCH  14  20
ENDBRANCH   1  12
TORSDOF 5
