REMARK  3 active torsions:
REMARK  status: ('A' for Active; 'I' for Inactive)
REMARK    1  A    between atoms: C7_7  and  N2_10 
REMARK    2  A    between atoms: C8_8  and  N1_9 
REMARK    3  A    between atoms: N2_10  and  C9_11 
ROOT
ATOM      1  C1  <0> d          -0.017   1.388   0.010  0.00  0.00     0.018 A 
ATOM      2  C2  <0> d           1.158   2.086   0.002  0.00  0.00     0.017 A 
ATOM      3  C3  <0> d           2.362   1.360  -0.013  0.00  0.00     0.019 A 
ATOM      4  C4  <0> d           2.310  -0.057  -0.020  0.00  0.00     0.044 A 
ATOM      5  C5  <0> d           3.510  -0.789  -0.036  0.00  0.00     0.033 A 
ATOM      6  C6  <0> d           4.707  -0.139  -0.043  0.00  0.00     0.034 A 
ATOM      7  C7  <0> d           4.770   1.255  -0.036  0.00  0.00     0.056 A 
ATOM      8  C8  <0> d           3.610   2.011  -0.022  0.00  0.00     0.065 A 
ATOM      9  N4  <0> d           1.126  -0.679  -0.013  0.00  0.00    -0.365 N 
ATOM     10  C16 <0> d           0.002  -0.004   0.002  0.00  0.00     0.088 A 
ATOM     11  H22 <0> d           1.098  -1.649  -0.018  0.00  0.00     0.165 HD
ENDROOT
BRANCH   7  12
ATOM     12  N2  <0> d           6.018   1.895  -0.044  0.00  0.00    -0.381 N 
ATOM     13  H9  <0> d           6.066   2.863  -0.040  0.00  0.00     0.160 HD
BRANCH  12  14
ATOM     14  C9  <0> d           7.248   1.100  -0.060  0.00  0.00     0.114 C 
ATOM     15  C12 <0> d           8.434   1.919   0.486  0.00  0.00     0.210 C 
ATOM     16  N3  <0> d           9.618   1.573  -0.334  0.00  0.00    -0.065 N 
ATOM     17  C13 <0> d           8.731   1.480   1.934  0.00  0.00     0.037 C 
ATOM     18  C11 <0> d           9.207   0.583  -1.353  0.00  0.00     0.237 C 
ATOM     19  C15 <0> d          10.628   0.952   0.550  0.00  0.00     0.235 C 
ATOM     20  H21 <0> d           9.998   2.396  -0.777  0.00  0.00     0.280 HD
ATOM     21  C10 <0> d           7.680   0.785  -1.517  0.00  0.00     0.055 C 
ATOM     22  C14 <0> d          10.281   1.456   1.978  0.00  0.00     0.030 C 
ENDBRANCH  12  14
ENDBRANCH   7  12
BRANCH   8  23
ATOM     23  N1  <0> d           3.678   3.407  -0.016  0.00  0.00    -0.397 N 
ATOM     24  H7  <0> d           2.862   3.932  -0.005  0.00  0.00     0.156 HD
ATOM     25  H8  <0> d           4.540   3.851  -0.022  0.00  0.00     0.156 HD
ENDBRANCH   8  23
TORSDOF 3
