REMARK  5 active torsions:
REMARK  status: ('A' for Active; 'I' for Inactive)
REMARK    1  A    between atoms: C2_2  and  C5_5 
REMARK    2  A    between atoms: C8_8  and  N2_19 
REMARK    3  A    between atoms: C9_9  and  C11_11 
REMARK    4  A    between atoms: C11_11  and  N1_12 
REMARK    5  A    between atoms: C14_15  and  O1_18 
ROOT
ATOM      1  C5  <0> d           0.718  -0.497  -1.257  0.00  0.00    -0.007 C 
ATOM      2  C6  <0> d           0.739  -2.027  -1.265  0.00  0.00     0.007 C 
ATOM      3  C7  <0> d           1.455  -2.521  -2.524  0.00  0.00     0.033 C 
ATOM      4  C8  <0> d           2.890  -1.991  -2.535  0.00  0.00     0.189 C 
ATOM      5  C9  <0> d           2.870  -0.461  -2.526  0.00  0.00     0.042 C 
ATOM      6  C10 <0> d           2.154   0.032  -1.268  0.00  0.00     0.013 C 
ENDROOT
BRANCH   5   7
ATOM      7  C11 <0> d           4.305   0.068  -2.537  0.00  0.00     0.241 C 
BRANCH   7   8
ATOM      8  N1  <0> d           4.286   1.533  -2.650  0.00  0.00    -0.070 N 
ATOM      9  C16 <0> d           5.656   2.049  -2.540  0.00  0.00     0.237 C 
ATOM     10  C15 <0> d           5.633   3.578  -2.575  0.00  0.00     0.059 C 
ATOM     11  C14 <0> d           5.015   4.044  -3.897  0.00  0.00     0.121 C 
ATOM     12  C13 <0> d           3.615   3.439  -4.035  0.00  0.00     0.059 C 
ATOM     13  C12 <0> d           3.712   1.915  -3.946  0.00  0.00     0.237 C 
ATOM     14  H34 <0> d           3.722   1.919  -1.908  0.00  0.00     0.279 HD
BRANCH  11  15
ATOM     15  O1  <0> d           4.923   5.470  -3.905  0.00  0.00    -0.395 OA
ATOM     16  H30 <0> d           5.775   5.919  -3.821  0.00  0.00     0.210 HD
ENDBRANCH  11  15
ENDBRANCH   7   8
ENDBRANCH   5   7
BRANCH   4  17
ATOM     17  N2  <0> d           3.601  -2.478  -1.345  0.00  0.00    -0.075 N 
ATOM     18  H31 <0> d           3.615  -3.487  -1.350  0.00  0.00     0.274 HD
ATOM     19  H32 <0> d           4.548  -2.128  -1.352  0.00  0.00     0.274 HD
ATOM     20  H33 <0> d           3.129  -2.152  -0.515  0.00  0.00     0.274 HD
ENDBRANCH   4  17
BRANCH   1  21
ATOM     21  C2  <0> d           0.002  -0.004   0.002  0.00  0.00    -0.048 C 
ATOM     22  C1  <0> d          -0.019   1.526   0.010  0.00  0.00     0.015 C 
ATOM     23  C3  <0> d           0.742  -0.511   1.242  0.00  0.00     0.015 C 
ATOM     24  C4  <0> d          -1.433  -0.534   0.013  0.00  0.00     0.015 C 
ENDBRANCH   1  21
TORSDOF 5
