REMARK  5 active torsions:
REMARK  status: ('A' for Active; 'I' for Inactive)
REMARK    1  A    between atoms: C2_2  and  C3_3 
REMARK    2  A    between atoms: C2_2  and  N3_9 
REMARK    3  A    between atoms: C3_3  and  N1_4 
REMARK    4  A    between atoms: N3_9  and  C7_10 
REMARK    5  A    between atoms: C7_10  and  C13_16 
ROOT
ATOM      1  N3  <0> d          -0.476  -0.412  -0.999  0.00  0.00    -0.051 N 
ATOM      2  H10 <0> d           0.229  -0.012  -0.397  0.00  0.00     0.279 HD
ATOM      3  H21 <0> d          -0.438  -1.418  -0.939  0.00  0.00     0.279 HD
ENDROOT
BRANCH   1   4
ATOM      4  C2  <0> d          -1.803   0.054  -0.576  0.00  0.00     0.201 C 
ATOM      5  C1  <0> d          -1.802   1.581  -0.484  0.00  0.00     0.041 C 
BRANCH   4   6
ATOM      6  C3  <0> d          -2.139  -0.539   0.794  0.00  0.00     0.161 C 
BRANCH   6   7
ATOM      7  N1  <0> d          -2.257  -1.994   0.681  0.00  0.00    -0.348 N 
ATOM      8  C6  <0> d          -1.261  -2.894   0.834  0.00  0.00     0.209 A 
ATOM      9  N2  <0> d          -1.749  -4.092   0.661  0.00  0.00    -0.255 NA
ATOM     10  C5  <0> d          -3.059  -4.001   0.387  0.00  0.00     0.135 A 
ATOM     11  C4  <0> d          -3.397  -2.697   0.395  0.00  0.00     0.111 A 
ENDBRANCH   6   7
ENDBRANCH   4   6
ENDBRANCH   1   4
BRANCH   1  12
ATOM     12  C7  <0> d          -0.230   0.006  -2.386  0.00  0.00     0.213 C 
ATOM     13  C12 <0> d           1.090  -0.596  -2.873  0.00  0.00     0.050 C 
ATOM     14  C11 <0> d           1.009  -2.123  -2.807  0.00  0.00     0.003 C 
ATOM     15  C10 <0> d          -0.134  -2.612  -3.697  0.00  0.00     0.000 C 
ATOM     16  C9  <0> d          -1.454  -2.010  -3.210  0.00  0.00     0.003 C 
ATOM     17  C8  <0> d          -1.373  -0.484  -3.276  0.00  0.00     0.050 C 
BRANCH  12  18
ATOM     18  C13 <0> d          -0.150   1.509  -2.451  0.00  0.00     0.210 C 
ATOM     19  O1  <0> d           0.445   2.127  -1.584  0.00  0.00    -0.646 OA
ATOM     20  O2  <0> d          -0.681   2.109  -3.370  0.00  0.00    -0.646 OA
ENDBRANCH  12  18
ENDBRANCH   1  12
TORSDOF 5
