REMARK  5 active torsions:
REMARK  status: ('A' for Active; 'I' for Inactive)
REMARK    1  A    between atoms: C6_7  and  C10_13 
REMARK    2  A    between atoms: C10_13  and  N3_14 
REMARK    3  A    between atoms: N3_14  and  C11_15 
REMARK    4  A    between atoms: C11_15  and  C12_16 
REMARK    5  A    between atoms: C11_15  and  C15_19 
ROOT
ATOM      1  C1  <0> d          -0.018   1.503   0.010  0.00  0.00     0.049 C 
ATOM      2  C2  <0> d           0.002  -0.004   0.002  0.00  0.00    -0.046 A 
ATOM      3  C3  <0> d           0.006  -0.697  -1.217  0.00  0.00     0.012 A 
ATOM      4  C4  <0> d           0.025  -2.059  -1.216  0.00  0.00     0.051 A 
ATOM      5  C5  <0> d           0.040  -2.750   0.010  0.00  0.00     0.137 A 
ATOM      6  N1  <0> d           0.059  -4.082   0.013  0.00  0.00    -0.233 NA
ATOM      7  C6  <0> d           0.074  -4.768   1.145  0.00  0.00     0.067 A 
ATOM      8  C7  <0> d           0.071  -4.104   2.356  0.00  0.00     0.104 A 
ATOM      9  C8  <0> d           0.051  -2.704   2.361  0.00  0.00     0.255 A 
ATOM     10  O1  <0> d           0.048  -2.088   3.415  0.00  0.00    -0.268 OA
ATOM     11  N2  <0> d           0.037  -2.046   1.182  0.00  0.00    -0.273 N 
ATOM     12  C9  <0> d           0.022  -0.685   1.170  0.00  0.00     0.108 A 
ENDROOT
BRANCH   7  13
ATOM     13  C10 <0> d           0.095  -6.274   1.112  0.00  0.00     0.292 C 
BRANCH  13  14
ATOM     14  N3  <0> d          -1.157  -6.768   0.523  0.00  0.00    -0.055 N 
ATOM     15  H11 <0> d          -1.938  -6.454   1.079  0.00  0.00     0.278 HD
ATOM     16  H17 <0> d          -1.249  -6.412  -0.417  0.00  0.00     0.278 HD
BRANCH  14  17
ATOM     17  C11 <0> d          -1.137  -8.237   0.491  0.00  0.00     0.290 C 
BRANCH  17  18
ATOM     18  C12 <0> d          -2.488  -8.754  -0.007  0.00  0.00     0.027 A 
ATOM     19  C14 <0> d          -2.668 -10.270  -0.112  0.00  0.00     0.007 A 
ATOM     20  C13 <0> d          -3.376  -9.491   0.999  0.00  0.00     0.007 A 
ENDBRANCH  17  18
BRANCH  17  21
ATOM     21  C15 <0> d          -0.046  -8.704  -0.438  0.00  0.00     0.205 C 
ATOM     22  O2  <0> d           0.649  -7.889  -1.020  0.00  0.00    -0.646 OA
ATOM     23  O3  <0> d           0.140  -9.897  -0.609  0.00  0.00    -0.646 OA
ENDBRANCH  17  21
ENDBRANCH  14  17
ENDBRANCH  13  14
ENDBRANCH   7  13
TORSDOF 5
