REMARK  4 active torsions:
REMARK  status: ('A' for Active; 'I' for Inactive)
REMARK    1  A    between atoms: C18_19  and  C19_20 
REMARK    2  A    between atoms: C18_19  and  O4_24 
REMARK    3  A    between atoms: C19_20  and  C20_22 
REMARK    4  A    between atoms: C20_22  and  O3_23 
ROOT
ATOM      1  C1  <0> d          -0.227   1.669   0.252  0.00  0.00     0.020 C 
ATOM      2  C2  <0> d          -0.065   0.152   0.363  0.00  0.00    -0.016 C 
ATOM      3  C3  <0> d           0.770  -0.319  -0.814  0.00  0.00     0.022 C 
ATOM      4  C4  <0> d           2.260  -0.066  -0.584  0.00  0.00     0.084 C 
ATOM      5  C5  <0> d           2.652  -0.794   0.687  0.00  0.00     0.149 C 
ATOM      6  O1  <0> d           3.625  -1.517   0.734  0.00  0.00    -0.293 OA
ATOM      7  C6  <0> d           1.795  -0.577   1.857  0.00  0.00     0.053 C 
ATOM      8  C7  <0> d           0.539  -0.152   1.700  0.00  0.00    -0.068 C 
ATOM      9  C8  <0> d          -0.299   0.071   2.946  0.00  0.00     0.036 C 
ATOM     10  C9  <0> d          -1.663  -0.594   2.750  0.00  0.00     0.014 C 
ATOM     11  C10 <0> d          -2.304  -0.057   1.467  0.00  0.00     0.020 C 
ATOM     12  C11 <0> d          -1.457  -0.479   0.265  0.00  0.00     0.006 C 
ATOM     13  C12 <0> d          -1.344  -1.986   0.144  0.00  0.00     0.007 C 
ATOM     14  C13 <0> d          -2.626  -2.740   0.470  0.00  0.00     0.017 C 
ATOM     15  C14 <0> d          -3.841  -1.833   0.288  0.00  0.00     0.018 C 
ATOM     16  C15 <0> d          -3.664  -0.704   1.292  0.00  0.00    -0.067 C 
ATOM     17  C16 <0> d          -4.769  -0.460   1.920  0.00  0.00    -0.019 C 
ATOM     18  C17 <0> d          -5.872  -1.385   1.452  0.00  0.00     0.074 C 
ATOM     19  C18 <0> d          -5.137  -2.532   0.737  0.00  0.00     0.134 C 
ATOM     20  C21 <0> d          -3.950  -1.332  -1.153  0.00  0.00     0.023 C 
ENDROOT
BRANCH  19  21
ATOM     21  C19 <0> d          -5.919  -3.037  -0.448  0.00  0.00     0.185 C 
ATOM     22  O2  <0> d          -6.793  -2.357  -0.929  0.00  0.00    -0.292 OA
BRANCH  21  23
ATOM     23  C20 <0> d          -5.609  -4.391  -1.034  0.00  0.00     0.245 C 
BRANCH  23  24
ATOM     24  O3  <0> d          -6.478  -4.641  -2.140  0.00  0.00    -0.393 OA
ATOM     25  H24 <0> d          -6.335  -5.497  -2.567  0.00  0.00     0.209 HD
ENDBRANCH  23  24
ENDBRANCH  21  23
ENDBRANCH  19  21
BRANCH  19  26
ATOM     26  O4  <0> d          -4.858  -3.591   1.655  0.00  0.00    -0.381 OA
ATOM     27  H25 <0> d          -5.644  -4.061   1.964  0.00  0.00     0.211 HD
ENDBRANCH  19  26
TORSDOF 4
