REMARK  5 active torsions:
REMARK  status: ('A' for Active; 'I' for Inactive)
REMARK    1  A    between atoms: C5_5  and  C8_8 
REMARK    2  A    between atoms: C8_8  and  C9_9 
REMARK    3  A    between atoms: C8_8  and  N3_24 
REMARK    4  A    between atoms: C9_9  and  N1_10 
REMARK       I    between atoms: N1_10  and  C10_11 
REMARK    5  A    between atoms: C10_11  and  C11_13 
ROOT
ATOM      1  N1  <0> d          -2.193  -3.793  -1.292  0.00  0.00    -0.354 N 
ATOM      2  C10 <0> d          -3.539  -3.782  -1.365  0.00  0.00     0.257 C 
ATOM      3  O1  <0> d          -4.199  -4.336  -0.506  0.00  0.00    -0.267 OA
ATOM      4  H12 <0> d          -1.665  -3.413  -2.012  0.00  0.00     0.162 HD
ENDROOT
BRANCH   1   5
ATOM      5  C9  <0> d          -1.527  -4.379  -0.126  0.00  0.00     0.161 C 
BRANCH   5   6
ATOM      6  C8  <0> d          -0.018  -4.148  -0.231  0.00  0.00     0.237 C 
BRANCH   6   7
ATOM      7  C5  <0> d           0.268  -2.669  -0.182  0.00  0.00    -0.026 A 
ATOM      8  C4  <0> d           0.513  -1.973  -1.351  0.00  0.00     0.010 A 
ATOM      9  C3  <0> d           0.775  -0.617  -1.305  0.00  0.00     0.007 A 
ATOM     10  C2  <0> d           0.792   0.044  -0.091  0.00  0.00    -0.062 A 
ATOM     11  C1  <0> d           1.077   1.523  -0.041  0.00  0.00     0.048 C 
ATOM     12  C7  <0> d           0.552  -0.653   1.079  0.00  0.00     0.007 A 
ATOM     13  C6  <0> d           0.286  -2.009   1.033  0.00  0.00     0.010 A 
ENDBRANCH   6   7
BRANCH   6  14
ATOM     14  N3  <0> d           0.658  -4.816   0.889  0.00  0.00    -0.069 N 
ATOM     15  C19 <0> d           0.453  -6.267   0.790  0.00  0.00     0.270 C 
ATOM     16  C20 <0> d           2.096  -4.520   0.839  0.00  0.00     0.270 C 
ATOM     17  H26 <0> d           0.276  -4.481   1.760  0.00  0.00     0.279 HD
ENDBRANCH   6  14
ENDBRANCH   5   6
ENDBRANCH   1   5
BRANCH   2  18
ATOM     18  C11 <0> d          -4.210  -3.101  -2.483  0.00  0.00     0.100 A 
ATOM     19  C15 <0> d          -3.456  -2.550  -3.552  0.00  0.00     0.261 A 
ATOM     20  N2  <0> d          -4.089  -1.935  -4.565  0.00  0.00    -0.326 N 
ATOM     21  O2  <0> d          -2.241  -2.637  -3.552  0.00  0.00    -0.267 OA
ATOM     22  C14 <0> d          -5.443  -1.816  -4.591  0.00  0.00     0.018 A 
ATOM     23  H2  <0> d          -3.567  -1.563  -5.294  0.00  0.00     0.169 HD
ATOM     24  C13 <0> d          -6.203  -2.324  -3.587  0.00  0.00    -0.034 A 
ATOM     25  C16 <0> d          -6.331  -1.161  -5.631  0.00  0.00     0.058 C 
ATOM     26  C12 <0> d          -5.596  -2.978  -2.511  0.00  0.00     0.032 A 
ATOM     27  C18 <0> d          -7.670  -2.060  -3.855  0.00  0.00     0.041 C 
ATOM     28  C17 <0> d          -7.746  -1.712  -5.357  0.00  0.00     0.011 C 
ENDBRANCH   2  18
TORSDOF 5
