REMARK  4 active torsions:
REMARK  status: ('A' for Active; 'I' for Inactive)
REMARK    1  A    between atoms: C6_7  and  N4_17 
REMARK    2  A    between atoms: C7_9  and  C8_11 
REMARK    3  A    between atoms: C8_11  and  N3_12 
REMARK    4  A    between atoms: C14_19  and  C19_24 
REMARK       I    between atoms: C19_24  and  N5_26 
ROOT
ATOM      1  C1  <0> d          -0.186   1.500   0.032  0.00  0.00     0.050 C 
ATOM      2  C2  <0> d          -0.150  -0.007   0.021  0.00  0.00    -0.032 A 
ATOM      3  C3  <0> d          -0.306  -0.681  -1.127  0.00  0.00    -0.012 A 
ATOM      4  S1  <0> d          -0.187  -2.389  -0.627  0.00  0.00    -0.074 SA
ATOM      5  C4  <0> d           0.069  -2.150   1.111  0.00  0.00     0.114 A 
ATOM      6  C5  <0> d           0.061  -0.745   1.254  0.00  0.00     0.053 A 
ATOM      7  C6  <0> d           0.255  -0.267   2.579  0.00  0.00     0.141 A 
ATOM      8  N1  <0> d           0.430  -1.137   3.560  0.00  0.00    -0.213 NA
ATOM      9  C7  <0> d           0.431  -2.442   3.352  0.00  0.00     0.155 A 
ATOM     10  N2  <0> d           0.246  -2.946   2.147  0.00  0.00    -0.224 NA
ATOM     11  C20 <0> d          -0.530  -0.128  -2.511  0.00  0.00     0.057 C 
ENDROOT
BRANCH   7  12
ATOM     12  N4  <0> d           0.262   1.092   2.839  0.00  0.00    -0.360 N 
ATOM     13  C17 <0> d          -0.977   1.789   3.208  0.00  0.00     0.082 C 
ATOM     14  C16 <0> d          -1.177   2.979   2.272  0.00  0.00     0.026 C 
ATOM     15  C18 <0> d          -0.874   2.289   4.651  0.00  0.00     0.032 C 
ATOM     16  C15 <0> d           0.073   3.862   2.298  0.00  0.00     0.018 C 
ATOM     17  C14 <0> d           1.278   3.056   1.808  0.00  0.00     0.096 C 
ATOM     18  C13 <0> d           1.507   1.866   2.745  0.00  0.00     0.139 C 
BRANCH  17  19
ATOM     19  C19 <0> d           2.502   3.935   1.803  0.00  0.00     0.221 C 
ATOM     20  O1  <0> d           3.463   3.640   2.481  0.00  0.00    -0.273 OA
ATOM     21  N5  <0> d           2.529   5.049   1.044  0.00  0.00    -0.370 N 
ATOM     22  H25 <0> d           1.760   5.285   0.502  0.00  0.00     0.159 HD
ATOM     23  H26 <0> d           3.317   5.615   1.041  0.00  0.00     0.159 HD
ENDBRANCH  17  19
ENDBRANCH   7  12
BRANCH   9  24
ATOM     24  C8  <0> d           0.636  -3.374   4.518  0.00  0.00     0.315 C 
BRANCH  24  25
ATOM     25  N3  <0> d          -0.666  -3.712   5.109  0.00  0.00    -0.064 N 
ATOM     26  C12 <0> d          -0.476  -4.529   6.327  0.00  0.00     0.235 C 
ATOM     27  C11 <0> d          -1.635  -5.542   6.376  0.00  0.00     0.029 C 
ATOM     28  C10 <0> d          -2.466  -5.267   5.102  0.00  0.00     0.029 C 
ATOM     29  C9  <0> d          -1.451  -4.556   4.173  0.00  0.00     0.235 C 
ATOM     30  H30 <0> d          -1.176  -2.870   5.331  0.00  0.00     0.280 HD
ENDBRANCH  24  25
ENDBRANCH   9  24
TORSDOF 4
