REMARK  2 active torsions:
REMARK  status: ('A' for Active; 'I' for Inactive)
REMARK    1  A    between atoms: N1_4  and  C8_10 
REMARK    2  A    between atoms: C11_16  and  O4_17 
ROOT
ATOM      1  C1  <0> d          -0.009   1.515  -0.147  0.00  0.00     0.041 C 
ATOM      2  C2  <0> d           0.008  -0.013  -0.074  0.00  0.00     0.147 C 
ATOM      3  C3  <0> d          -1.429  -0.541  -0.064  0.00  0.00     0.304 C 
ATOM      4  N1  <0> d          -1.407  -2.003   0.085  0.00  0.00     0.102 N 
ATOM      5  C4  <0> d          -0.719  -2.391   1.325  0.00  0.00     0.310 C 
ATOM      6  C5  <0> d           0.711  -1.844   1.301  0.00  0.00     0.080 C 
ATOM      7  O1  <0> d           0.671  -0.426   1.124  0.00  0.00    -0.372 OA
ATOM      8  C6  <0> d           1.406  -2.175   2.623  0.00  0.00     0.047 C 
ATOM      9  C7  <0> d           1.482  -2.482   0.143  0.00  0.00     0.047 C 
ENDROOT
BRANCH   4  10
ATOM     10  C8  <0> d          -2.768  -2.557   0.042  0.00  0.00     0.266 C 
ATOM     11  C11 <0> d          -2.672  -4.065  -0.134  0.00  0.00     0.166 C 
ATOM     12  C10 <0> d          -3.343  -4.873   0.995  0.00  0.00     0.174 C 
ATOM     13  S1  <0> d          -4.527  -3.630   1.674  0.00  0.00     0.149 S 
ATOM     14  C9  <0> d          -3.516  -2.126   1.324  0.00  0.00     0.178 C 
ATOM     15  O2  <0> d          -4.638  -3.805   3.079  0.00  0.00    -0.228 OA
ATOM     16  O3  <0> d          -5.698  -3.607   0.870  0.00  0.00    -0.228 OA
BRANCH  11  17
ATOM     17  O4  <0> d          -1.292  -4.431  -0.198  0.00  0.00    -0.392 OA
ATOM     18  H21 <0> d          -1.142  -5.379  -0.310  0.00  0.00     0.210 HD
ENDBRANCH  11  17
ENDBRANCH   4  10
TORSDOF 2
