REMARK  5 active torsions:
REMARK  status: ('A' for Active; 'I' for Inactive)
REMARK    1  A    between atoms: C2_2  and  C3_3 
REMARK    2  A    between atoms: C3_3  and  N1_4 
REMARK    3  A    between atoms: C4_5  and  N2_6 
REMARK    4  A    between atoms: C5_7  and  C16_21 
REMARK       I    between atoms: C16_21  and  N5_23 
REMARK    5  A    between atoms: N5_23  and  C17_24 
ROOT
ATOM      1  N1  <0> d           0.603  -1.750  -1.397  0.00  0.00    -0.316 N 
ATOM      2  C4  <0> d           1.630  -2.340  -0.815  0.00  0.00     0.118 A 
ATOM      3  C5  <0> d           1.729  -3.748  -0.750  0.00  0.00     0.077 A 
ATOM      4  C6  <0> d           0.718  -4.529  -1.314  0.00  0.00     0.042 A 
ATOM      5  C7  <0> d          -0.352  -3.875  -1.920  0.00  0.00     0.080 A 
ATOM      6  C8  <0> d          -0.389  -2.454  -1.944  0.00  0.00     0.149 A 
ATOM      7  N3  <0> d          -1.428  -1.846  -2.527  0.00  0.00    -0.211 NA
ATOM      8  C9  <0> d          -2.427  -2.525  -3.079  0.00  0.00     0.145 A 
ATOM      9  C10 <0> d          -3.484  -1.802  -3.673  0.00  0.00    -0.015 A 
ATOM     10  C11 <0> d          -4.520  -2.474  -4.246  0.00  0.00     0.012 A 
ATOM     11  C12 <0> d          -4.525  -3.877  -4.239  0.00  0.00     0.018 A 
ATOM     12  C13 <0> d          -3.507  -4.556  -3.667  0.00  0.00     0.102 A 
ATOM     13  N4  <0> d          -2.463  -3.893  -3.090  0.00  0.00    -0.272 N 
ATOM     14  C14 <0> d          -1.457  -4.610  -2.537  0.00  0.00     0.267 A 
ATOM     15  O1  <0> d          -1.477  -5.828  -2.540  0.00  0.00    -0.267 OA
ATOM     16  C15 <0> d          -3.466  -0.295  -3.673  0.00  0.00     0.052 C 
ENDROOT
BRANCH   3  17
ATOM     17  C16 <0> d           2.884  -4.383  -0.097  0.00  0.00     0.260 C 
ATOM     18  O2  <0> d           3.708  -3.700   0.482  0.00  0.00    -0.267 OA
ATOM     19  N5  <0> d           3.030  -5.723  -0.139  0.00  0.00    -0.322 N 
ATOM     20  H16 <0> d           2.408  -6.262  -0.653  0.00  0.00     0.169 HD
BRANCH  19  21
ATOM     21  C17 <0> d           4.077  -6.335   0.557  0.00  0.00     0.041 A 
ATOM     22  C22 <0> d           3.891  -7.583   1.137  0.00  0.00    -0.035 A 
ATOM     23  C21 <0> d           4.928  -8.187   1.820  0.00  0.00     0.009 A 
ATOM     24  C23 <0> d           2.560  -8.280   1.017  0.00  0.00     0.050 C 
ATOM     25  C20 <0> d           6.148  -7.545   1.935  0.00  0.00     0.001 A 
ATOM     26  C19 <0> d           6.335  -6.300   1.364  0.00  0.00     0.002 A 
ATOM     27  C18 <0> d           5.303  -5.693   0.675  0.00  0.00     0.030 A 
ENDBRANCH  19  21
ENDBRANCH   3  17
BRANCH   2  28
ATOM     28  N2  <0> d           2.627  -1.566  -0.259  0.00  0.00    -0.384 N 
ATOM     29  H8  <0> d           2.609  -0.602  -0.364  0.00  0.00     0.157 HD
ATOM     30  H24 <0> d           3.347  -1.986   0.238  0.00  0.00     0.157 HD
ENDBRANCH   2  28
BRANCH   1  31
ATOM     31  C3  <0> d           0.548  -0.287  -1.437  0.00  0.00     0.132 C 
BRANCH  31  32
ATOM     32  C2  <0> d          -0.173   0.231  -0.190  0.00  0.00     0.016 C 
ATOM     33  C1  <0> d          -0.231   1.759  -0.232  0.00  0.00     0.006 C 
ENDBRANCH  31  32
ENDBRANCH   1  31
TORSDOF 5
