REMARK  4 active torsions:
REMARK  status: ('A' for Active; 'I' for Inactive)
REMARK    1  A    between atoms: C2_2  and  N3_26 
REMARK    2  A    between atoms: C7_8  and  N2_13 
REMARK    3  A    between atoms: C8_9  and  C9_10 
REMARK       I    between atoms: C9_10  and  N1_12 
REMARK       I    between atoms: N2_13  and  C10_14 
REMARK    4  A    between atoms: C10_14  and  C11_16 
ROOT
ATOM      1  C3  <0> d           7.044   0.003   0.377  0.00  0.00     0.240 C 
ATOM      2  C4  <0> d           6.216   1.219  -0.047  0.00  0.00     0.068 C 
ATOM      3  C5  <0> d           4.745   0.819  -0.038  0.00  0.00    -0.023 A 
ATOM      4  C6  <0> d           4.397  -0.488  -0.043  0.00  0.00     0.018 A 
ATOM      5  S1  <0> d           2.629  -0.484  -0.018  0.00  0.00    -0.074 SA
ATOM      6  C7  <0> d           2.352   1.227  -0.014  0.00  0.00     0.093 A 
ATOM      7  C8  <0> d           3.637   1.756  -0.023  0.00  0.00     0.073 A 
ATOM      8  C15 <0> d           5.333  -1.656  -0.061  0.00  0.00     0.281 C 
ATOM      9  N3  <0> d           6.672  -1.158  -0.458  0.00  0.00    -0.067 N 
ATOM     10  H17 <0> d           6.643  -0.866  -1.442  0.00  0.00     0.280 HD
ENDROOT
BRANCH   6  11
ATOM     11  N2  <0> d           1.143   1.903   0.001  0.00  0.00    -0.316 N 
ATOM     12  C10 <0> d          -0.014   1.213   0.009  0.00  0.00     0.263 C 
ATOM     13  O2  <0> d           0.002  -0.004   0.002  0.00  0.00    -0.267 OA
ATOM     14  H12 <0> d           1.130   2.873   0.007  0.00  0.00     0.169 HD
BRANCH  12  15
ATOM     15  C11 <0> d          -1.292   1.928   0.019  0.00  0.00     0.074 A 
ATOM     16  S2  <0> d          -1.597   3.686   0.038  0.00  0.00    -0.072 SA
ATOM     17  C14 <0> d          -3.330   3.649   0.039  0.00  0.00     0.075 A 
ATOM     18  C13 <0> d          -3.613   2.318   0.033  0.00  0.00     0.033 A 
ATOM     19 Cl1  <0> d          -4.437   4.987   0.054  0.00  0.00    -0.076 Cl
ATOM     20  C12 <0> d          -2.581   1.415   0.022  0.00  0.00     0.027 A 
ENDBRANCH  12  15
ENDBRANCH   6  11
BRANCH   7  21
ATOM     21  C9  <0> d           3.864   3.204  -0.018  0.00  0.00     0.252 C 
ATOM     22  O1  <0> d           3.968   3.799   1.039  0.00  0.00    -0.268 OA
ATOM     23  N1  <0> d           3.958   3.876  -1.182  0.00  0.00    -0.366 N 
ATOM     24  H10 <0> d           3.875   3.401  -2.024  0.00  0.00     0.159 HD
ATOM     25  H11 <0> d           4.108   4.834  -1.178  0.00  0.00     0.159 HD
ENDBRANCH   7  21
BRANCH   9  26
ATOM     26  C2  <0> d           7.677  -2.233  -0.305  0.00  0.00     0.231 C 
ATOM     27  C1  <0> d           7.826  -2.621   1.167  0.00  0.00     0.034 C 
ENDBRANCH   9  26
TORSDOF 4
