REMARK  7 active torsions:
REMARK  status: ('A' for Active; 'I' for Inactive)
REMARK    1  A    between atoms: C3_3  and  N2_15 
REMARK    2  A    between atoms: C4_4  and  O1_8 
REMARK    3  A    between atoms: O1_8  and  C7_9 
REMARK       I    between atoms: N2_15  and  C12_16 
REMARK    4  A    between atoms: C12_16  and  C13_18 
REMARK       I    between atoms: C13_18  and  N3_20 
REMARK    5  A    between atoms: N3_20  and  C14_21 
REMARK    6  A    between atoms: C14_21  and  C15_22 
REMARK    7  A    between atoms: C15_22  and  N4_23 
ROOT
ATOM      1  N2  <0> d           3.582   2.134  -0.021  0.00  0.00    -0.316 N 
ATOM      2  C12 <0> d           3.563   3.478  -0.116  0.00  0.00     0.314 C 
ATOM      3  O2  <0> d           2.504   4.072  -0.103  0.00  0.00    -0.262 OA
ATOM      4  H8  <0> d           4.428   1.665   0.049  0.00  0.00     0.169 HD
ENDROOT
BRANCH   1   5
ATOM      5  C3  <0> d           2.382   1.415  -0.024  0.00  0.00     0.071 A 
ATOM      6  C2  <0> d           1.250   1.955  -0.618  0.00  0.00     0.032 A 
ATOM      7  C1  <0> d           0.065   1.243  -0.621  0.00  0.00     0.004 A 
ATOM      8  C6  <0> d           0.004  -0.007  -0.032  0.00  0.00     0.027 A 
ATOM      9  C5  <0> d           1.128  -0.552   0.562  0.00  0.00     0.070 A 
ATOM     10  C4  <0> d           2.321   0.155   0.569  0.00  0.00     0.124 A 
ATOM     11 Cl1  <0> d           1.046  -2.122   1.299  0.00  0.00    -0.081 Cl
BRANCH  10  12
ATOM     12  O1  <0> d           3.427  -0.379   1.152  0.00  0.00    -0.305 OA
BRANCH  12  13
ATOM     13  C7  <0> d           3.640  -0.123   2.469  0.00  0.00     0.093 A 
ATOM     14  C11 <0> d           2.748   0.661   3.187  0.00  0.00     0.153 A 
ATOM     15  N1  <0> d           2.948   0.907   4.467  0.00  0.00    -0.270 NA
ATOM     16  C10 <0> d           3.998   0.433   5.109  0.00  0.00     0.116 A 
ATOM     17  C9  <0> d           4.933  -0.351   4.460  0.00  0.00     0.022 A 
ATOM     18  C8  <0> d           4.759  -0.639   3.116  0.00  0.00     0.040 A 
ENDBRANCH  12  13
ENDBRANCH  10  12
ENDBRANCH   1   5
BRANCH   2  19
ATOM     19  C13 <0> d           4.843   4.237  -0.237  0.00  0.00     0.309 C 
ATOM     20  O3  <0> d           5.902   3.643  -0.250  0.00  0.00    -0.262 OA
ATOM     21  N3  <0> d           4.824   5.581  -0.332  0.00  0.00    -0.351 N 
ATOM     22  H9  <0> d           3.978   6.056  -0.321  0.00  0.00     0.162 HD
BRANCH  21  23
ATOM     23  C14 <0> d           6.080   6.325  -0.451  0.00  0.00     0.143 C 
BRANCH  23  24
ATOM     24  C15 <0> d           5.780   7.822  -0.542  0.00  0.00     0.149 C 
BRANCH  24  25
ATOM     25  N4  <0> d           7.036   8.566  -0.660  0.00  0.00    -0.350 N 
ATOM     26  C18 <0> d           7.667   8.896  -1.808  0.00  0.00     0.182 A 
ATOM     27  N5  <0> d           8.752   9.558  -1.514  0.00  0.00    -0.361 N 
ATOM     28  C17 <0> d           8.857   9.666  -0.181  0.00  0.00     0.106 A 
ATOM     29  H17 <0> d           9.386   9.912  -2.158  0.00  0.00     0.166 HD
ATOM     30  C16 <0> d           7.793   9.052   0.371  0.00  0.00     0.108 A 
ENDBRANCH  24  25
ENDBRANCH  23  24
ENDBRANCH  21  23
ENDBRANCH   2  19
TORSDOF 7
