REMARK  4 active torsions:
REMARK  status: ('A' for Active; 'I' for Inactive)
REMARK    1  A    between atoms: C2_3  and  C4_8 
REMARK    2  A    between atoms: C4_8  and  C5_9 
REMARK    3  A    between atoms: C5_9  and  N4_10 
REMARK       I    between atoms: N4_10  and  C6_11 
REMARK    4  A    between atoms: C6_11  and  C7_13 
ROOT
ATOM      1  C5  <0> d          -0.900   5.365  -1.407  0.00  0.00     0.130 C 
ENDROOT
BRANCH   1   2
ATOM      2  C4  <0> d          -0.469   4.076  -0.704  0.00  0.00     0.100 C 
BRANCH   2   3
ATOM      3  C2  <0> d          -0.931   2.888  -1.508  0.00  0.00     0.130 A 
ATOM      4  N1  <0> d          -0.721   1.571  -1.179  0.00  0.00    -0.314 N 
ATOM      5  C1  <0> d          -0.013   1.086   0.008  0.00  0.00     0.160 C 
ATOM      6  C3  <0> d          -1.274   0.801  -2.138  0.00  0.00     0.195 A 
ATOM      7  N3  <0> d          -1.829   1.628  -3.048  0.00  0.00    -0.251 N 
ATOM      8  S1  <0> d          -1.274  -0.910  -2.189  0.00  0.00    -0.039 SA
ATOM      9  N2  <0> d          -1.590   2.941  -2.620  0.00  0.00    -0.159 NA
ATOM     10  H4  <0> d          -2.303   1.363  -3.852  0.00  0.00     0.191 HD
ENDBRANCH   2   3
ENDBRANCH   1   2
BRANCH   1  11
ATOM     11  N4  <0> d          -0.451   6.521  -0.626  0.00  0.00    -0.356 N 
ATOM     12  C6  <0> d          -0.720   7.770  -1.055  0.00  0.00     0.252 C 
ATOM     13  O1  <0> d          -1.335   7.938  -2.091  0.00  0.00    -0.268 OA
ATOM     14  H9  <0> d           0.039   6.387   0.200  0.00  0.00     0.162 HD
BRANCH  12  15
ATOM     15  C7  <0> d          -0.269   8.931  -0.271  0.00  0.00     0.040 A 
ATOM     16  C10 <0> d           0.429   8.778   0.906  0.00  0.00     0.068 A 
ATOM     17  S2  <0> d           0.719  10.348   1.420  0.00  0.00    -0.093 SA
ATOM     18  C9  <0> d          -0.075  11.256   0.112  0.00  0.00     0.052 A 
ATOM     19  C8  <0> d          -0.542  10.282  -0.696  0.00  0.00     0.044 A 
ATOM     20 Br1  <0> d          -0.225  13.130  -0.096  0.00  0.00    -0.043 Br
ENDBRANCH  12  15
ENDBRANCH   1  11
TORSDOF 4
