REMARK  4 active torsions:
REMARK  status: ('A' for Active; 'I' for Inactive)
REMARK    1  A    between atoms: N1_4  and  C7_10 
REMARK    2  A    between atoms: C5_6  and  C6_8 
REMARK    3  A    between atoms: C6_8  and  N2_9 
REMARK    4  A    between atoms: C7_10  and  C8_11 
ROOT
ATOM      1  C1  <0> d           0.410   3.558   7.016  0.00  0.00     0.047 C 
ATOM      2  C2  <0> d          -0.500   3.343   5.805  0.00  0.00     0.080 C 
ATOM      3  C3  <0> d           0.320   2.774   4.644  0.00  0.00     0.309 C 
ATOM      4  N1  <0> d          -0.573   2.498   3.509  0.00  0.00     0.096 N 
ATOM      5  C4  <0> d          -1.627   1.548   3.895  0.00  0.00     0.306 C 
ATOM      6  C5  <0> d          -2.427   2.129   5.064  0.00  0.00     0.176 C 
ATOM      7  O1  <0> d          -1.538   2.420   6.146  0.00  0.00    -0.370 OA
ATOM      8  C12 <0> d          -1.119   4.678   5.388  0.00  0.00     0.047 C 
ENDROOT
BRANCH   4   9
ATOM      9  C7  <0> d           0.184   2.003   2.352  0.00  0.00     0.304 C 
BRANCH   9  10
ATOM     10  C8  <0> d          -0.786   1.635   1.227  0.00  0.00     0.149 C 
ATOM     11  O2  <0> d          -1.497   2.808   0.767  0.00  0.00    -0.384 OA
ATOM     12  C11 <0> d          -1.972   2.474  -0.555  0.00  0.00     0.168 C 
ATOM     13  C10 <0> d          -0.806   1.701  -1.210  0.00  0.00     0.029 C 
ATOM     14  C9  <0> d          -0.010   1.137  -0.011  0.00  0.00     0.036 C 
ENDBRANCH   9  10
ENDBRANCH   4   9
BRANCH   6  15
ATOM     15  C6  <0> d          -3.474   1.112   5.522  0.00  0.00     0.263 C 
BRANCH  15  16
ATOM     16  N2  <0> d          -4.316   1.712   6.566  0.00  0.00    -0.077 N 
ATOM     17  H12 <0> d          -5.069   0.981   6.896  0.00  0.00     0.274 HD
ATOM     18  H13 <0> d          -4.822   2.602   6.162  0.00  0.00     0.274 HD
ATOM     19  H25 <0> d          -3.689   2.004   7.421  0.00  0.00     0.274 HD
ENDBRANCH  15  16
ENDBRANCH   6  15
TORSDOF 4
