REMARK  7 active torsions:
REMARK  status: ('A' for Active; 'I' for Inactive)
REMARK    1  A    between atoms: N2_8  and  C4_10 
REMARK    2  A    between atoms: C5_11  and  O7_20 
REMARK    3  A    between atoms: C6_12  and  O6_19 
REMARK    4  A    between atoms: C7_13  and  C8_15 
REMARK    5  A    between atoms: C8_15  and  C9_16 
REMARK    6  A    between atoms: C8_15  and  O5_18 
REMARK    7  A    between atoms: C9_16  and  O4_17 
ROOT
ATOM      1  C4  <0> d           2.414   1.154  -0.015  0.00  0.00     0.283 C 
ATOM      2  C5  <0> d           3.378   1.793  -1.032  0.00  0.00     0.200 C 
ATOM      3  C6  <0> d           4.571   2.278  -0.172  0.00  0.00     0.182 C 
ATOM      4  C7  <0> d           3.939   2.362   1.240  0.00  0.00     0.186 C 
ATOM      5  O3  <0> d           3.041   1.232   1.276  0.00  0.00    -0.351 OA
ENDROOT
BRANCH   1   6
ATOM      6  N2  <0> d           1.147   1.890   0.001  0.00  0.00    -0.187 N 
ATOM      7  C3  <0> d          -0.014   1.212   0.009  0.00  0.00     0.348 A 
ATOM      8  N1  <0> d          -1.195   1.859   0.018  0.00  0.00    -0.273 N 
ATOM      9  O2  <0> d           0.002  -0.004   0.002  0.00  0.00    -0.245 OA
ATOM     10  C2  <0> d          -1.226   3.207   0.031  0.00  0.00     0.268 A 
ATOM     11  H1  <0> d          -2.024   1.355   0.019  0.00  0.00     0.173 HD
ATOM     12  C1  <0> d           0.037   3.951   0.023  0.00  0.00     0.213 A 
ATOM     13  O1  <0> d          -2.289   3.800   0.044  0.00  0.00    -0.266 OA
ATOM     14  N3  <0> d           1.161   3.290   0.009  0.00  0.00    -0.173 NA
ENDBRANCH   1   6
BRANCH   2  15
ATOM     15  O7  <0> d           2.753   2.898  -1.688  0.00  0.00    -0.388 OA
ATOM     16  H13 <0> d           1.964   2.660  -2.195  0.00  0.00     0.210 HD
ENDBRANCH   2  15
BRANCH   4  17
ATOM     17  C8  <0> d           5.015   2.230   2.320  0.00  0.00     0.173 C 
BRANCH  17  18
ATOM     18  C9  <0> d           4.347   2.080   3.689  0.00  0.00     0.198 C 
BRANCH  18  19
ATOM     19  O4  <0> d           5.348   2.074   4.709  0.00  0.00    -0.398 OA
ATOM     20  H10 <0> d           4.996   1.981   5.605  0.00  0.00     0.209 HD
ENDBRANCH  18  19
ENDBRANCH  17  18
BRANCH  17  21
ATOM     21  O5  <0> d           5.819   1.079   2.054  0.00  0.00    -0.391 OA
ATOM     22  H11 <0> d           5.324   0.249   2.040  0.00  0.00     0.210 HD
ENDBRANCH  17  21
ENDBRANCH   4  17
BRANCH   3  23
ATOM     23  O6  <0> d           5.637   1.327  -0.198  0.00  0.00    -0.390 OA
ATOM     24  H12 <0> d           6.064   1.238  -1.061  0.00  0.00     0.210 HD
ENDBRANCH   3  23
TORSDOF 7
