REMARK  4 active torsions:
REMARK  status: ('A' for Active; 'I' for Inactive)
REMARK    1  A    between atoms: C3_3  and  C7_8 
REMARK    2  A    between atoms: C7_8  and  N1_9 
REMARK    3  A    between atoms: N1_9  and  C8_10 
REMARK    4  A    between atoms: C11_16  and  O3_17 
ROOT
ATOM      1  N1  <0> d           4.106   2.427   1.360  0.00  0.00    -0.064 N 
ATOM      2  H9  <0> d           3.400   2.959   1.845  0.00  0.00     0.278 HD
ATOM      3  H15 <0> d           4.244   1.544   1.829  0.00  0.00     0.278 HD
ENDROOT
BRANCH   1   4
ATOM      4  C7  <0> d           3.672   2.183  -0.022  0.00  0.00     0.271 C 
BRANCH   4   5
ATOM      5  C3  <0> d           2.378   1.411  -0.013  0.00  0.00    -0.032 A 
ATOM      6  C2  <0> d           1.171   2.086   0.002  0.00  0.00     0.009 A 
ATOM      7  C1  <0> d          -0.017   1.378   0.010  0.00  0.00     0.002 A 
ATOM      8  C6  <0> d           0.002  -0.004   0.002  0.00  0.00     0.019 A 
ATOM      9  C5  <0> d           1.210  -0.679  -0.014  0.00  0.00     0.011 A 
ATOM     10  C4  <0> d           2.397   0.029  -0.022  0.00  0.00     0.027 A 
ATOM     11 Br1  <0> d           1.236  -2.570  -0.025  0.00  0.00    -0.051 Br
ENDBRANCH   4   5
ENDBRANCH   1   4
BRANCH   1  12
ATOM     12  C8  <0> d           5.368   3.179   1.351  0.00  0.00     0.229 C 
ATOM     13  C11 <0> d           5.699   3.588   2.779  0.00  0.00     0.163 C 
ATOM     14  C10 <0> d           7.056   3.061   3.285  0.00  0.00     0.174 C 
ATOM     15  S1  <0> d           7.938   2.751   1.694  0.00  0.00     0.149 S 
ATOM     16  C9  <0> d           6.457   2.309   0.685  0.00  0.00     0.176 C 
ATOM     17  O1  <0> d           8.771   1.607   1.832  0.00  0.00    -0.228 OA
ATOM     18  O2  <0> d           8.488   3.970   1.214  0.00  0.00    -0.228 OA
BRANCH  13  19
ATOM     19  O3  <0> d           5.712   5.015   2.853  0.00  0.00    -0.393 OA
ATOM     20  H14 <0> d           5.916   5.361   3.733  0.00  0.00     0.210 HD
ENDBRANCH  13  19
ENDBRANCH   1  12
TORSDOF 4
