REMARK  3 active torsions:
REMARK  status: ('A' for Active; 'I' for Inactive)
REMARK    1  A    between atoms: S1_2  and  C2_5 
REMARK    2  A    between atoms: C2_5  and  C3_6 
REMARK    3  A    between atoms: C4_8  and  C5_11 
ROOT
ATOM      1  C5  <0> d           2.672  -5.050  -1.212  0.00  0.00     0.332 C 
ATOM      2  C6  <0> d           2.067  -5.833  -0.077  0.00  0.00    -0.011 A 
ATOM      3  C7  <0> d           1.501  -5.135   0.980  0.00  0.00     0.010 A 
ATOM      4  C8  <0> d           0.939  -5.812   2.043  0.00  0.00     0.001 A 
ATOM      5  C9  <0> d           0.940  -7.194   2.056  0.00  0.00     0.001 A 
ATOM      6  C10 <0> d           1.502  -7.891   1.005  0.00  0.00     0.008 A 
ATOM      7  C11 <0> d           2.065  -7.211  -0.064  0.00  0.00    -0.048 A 
ATOM      8  C12 <0> d           2.656  -8.014  -1.195  0.00  0.00     0.069 C 
ATOM      9  C13 <0> d           3.568  -7.127  -2.043  0.00  0.00     0.275 C 
ATOM     10  N3  <0> d           2.830  -5.904  -2.393  0.00  0.00     0.100 N 
ATOM     11  H15 <0> d           1.934  -6.125  -2.803  0.00  0.00     0.317 HD
ENDROOT
BRANCH   1  12
ATOM     12  C4  <0> d           1.771  -3.890  -1.553  0.00  0.00     0.210 A 
ATOM     13  N1  <0> d           1.984  -2.641  -1.246  0.00  0.00    -0.205 NA
ATOM     14  C3  <0> d           0.984  -1.879  -1.702  0.00  0.00     0.170 A 
ATOM     15  N2  <0> d           0.115  -2.639  -2.304  0.00  0.00    -0.110 NA
ATOM     16  O3  <0> d           0.615  -3.966  -2.223  0.00  0.00    -0.193 OA
BRANCH  14  17
ATOM     17  C2  <0> d           0.877  -0.385  -1.541  0.00  0.00     0.222 C 
BRANCH  17  18
ATOM     18  S1  <0> d           0.002  -0.004   0.002  0.00  0.00     0.147 S 
ATOM     19  C1  <0> d          -0.022   1.810   0.012  0.00  0.00     0.161 C 
ATOM     20  O1  <0> d           0.798  -0.449   1.092  0.00  0.00    -0.228 OA
ATOM     21  O2  <0> d          -1.335  -0.471  -0.113  0.00  0.00    -0.228 OA
ENDBRANCH  17  18
ENDBRANCH  14  17
ENDBRANCH   1  12
TORSDOF 3
