REMARK  4 active torsions:
REMARK  status: ('A' for Active; 'I' for Inactive)
REMARK    1  A    between atoms: C8_9  and  N2_11 
REMARK       I    between atoms: N2_11  and  C10_12 
REMARK    2  A    between atoms: C10_12  and  C11_14 
REMARK    3  A    between atoms: C15_18  and  S1_20 
REMARK    4  A    between atoms: S1_20  and  C17_23 
ROOT
ATOM      1  C11 <0> d           2.404   0.034  -0.005  0.00  0.00     0.033 A 
ATOM      2  C12 <0> d           1.205  -0.680   0.008  0.00  0.00     0.017 A 
ATOM      3  C13 <0> d           0.003  -0.003   0.033  0.00  0.00     0.002 A 
ATOM      4  C14 <0> d          -0.015   1.381   0.046  0.00  0.00     0.023 A 
ATOM      5  C15 <0> d           1.170   2.094   0.034  0.00  0.00     0.060 A 
ATOM      6  C16 <0> d           2.379   1.430   0.009  0.00  0.00     0.040 A 
ENDROOT
BRANCH   1   7
ATOM      7  C10 <0> d           3.696  -0.684  -0.031  0.00  0.00     0.256 C 
ATOM      8  N2  <0> d           3.717  -2.032  -0.043  0.00  0.00    -0.321 N 
ATOM      9  H8  <0> d           2.888  -2.531   0.031  0.00  0.00     0.169 HD
ATOM     10  O1  <0> d           4.739  -0.060  -0.042  0.00  0.00    -0.267 OA
BRANCH   8  11
ATOM     11  C8  <0> d           4.931  -2.710  -0.164  0.00  0.00     0.064 A 
ATOM     12  C7  <0> d           5.001  -3.923  -0.882  0.00  0.00     0.093 A 
ATOM     13  C3  <0> d           6.246  -4.590  -0.988  0.00  0.00    -0.005 A 
ATOM     14  N1  <0> d           3.915  -4.445  -1.460  0.00  0.00    -0.258 NA
ATOM     15  C2  <0> d           7.386  -4.037  -0.381  0.00  0.00     0.014 A 
ATOM     16  C4  <0> d           6.313  -5.799  -1.705  0.00  0.00     0.015 A 
ATOM     17  C1  <0> d           7.289  -2.865   0.306  0.00  0.00     0.003 A 
ATOM     18  C9  <0> d           6.073  -2.197   0.414  0.00  0.00     0.032 A 
ATOM     19  C5  <0> d           5.166  -6.278  -2.270  0.00  0.00     0.020 A 
ATOM     20  C6  <0> d           3.973  -5.572  -2.127  0.00  0.00     0.117 A 
ENDBRANCH   8  11
ENDBRANCH   1   7
BRANCH   5  21
ATOM     21  S1  <0> d           1.135   3.856   0.050  0.00  0.00     0.180 S 
ATOM     22  O2  <0> d           2.353   4.248  -0.569  0.00  0.00    -0.222 OA
ATOM     23  O3  <0> d          -0.116   4.199  -0.531  0.00  0.00    -0.222 OA
BRANCH  21  24
ATOM     24  C17 <0> d           1.153   4.306   1.807  0.00  0.00     0.128 C 
ATOM     25  C20 <0> d          -0.040   3.626   2.536  0.00  0.00     0.160 C 
ATOM     26  S2  <0> d          -0.159   4.680   4.043  0.00  0.00     0.145 S 
ATOM     27  C19 <0> d           0.693   6.189   3.428  0.00  0.00     0.142 C 
ATOM     28  O4  <0> d           0.622   4.097   5.077  0.00  0.00    -0.228 OA
ATOM     29  O5  <0> d          -1.525   4.987   4.287  0.00  0.00    -0.228 OA
ATOM     30  C18 <0> d           0.999   5.829   1.954  0.00  0.00     0.036 C 
ENDBRANCH  21  24
ENDBRANCH   5  21
TORSDOF 4
