REMARK  7 active torsions:
REMARK  status: ('A' for Active; 'I' for Inactive)
REMARK    1  A    between atoms: C6_8  and  C10_13 
REMARK       I    between atoms: C10_13  and  N2_15 
REMARK    2  A    between atoms: N2_15  and  C11_16 
REMARK    3  A    between atoms: C11_16  and  C12_17 
REMARK    4  A    between atoms: C12_17  and  C13_18 
REMARK    5  A    between atoms: C13_18  and  N3_19 
REMARK    6  A    between atoms: N3_19  and  C15_21 
REMARK    7  A    between atoms: C15_21  and  C16_22 
ROOT
ATOM      1  C10 <0> d           6.624   0.407  -0.018  0.00  0.00     0.251 C 
ATOM      2  O2  <0> d           6.963   0.377  -1.185  0.00  0.00    -0.268 OA
ATOM      3  N2  <0> d           7.532   0.673   0.942  0.00  0.00    -0.357 N 
ATOM      4  H9  <0> d           7.261   0.697   1.873  0.00  0.00     0.162 HD
ENDROOT
BRANCH   1   5
ATOM      5  C6  <0> d           5.218   0.154   0.348  0.00  0.00     0.034 A 
ATOM      6  C5  <0> d           4.277  -0.121  -0.647  0.00  0.00     0.048 A 
ATOM      7  C4  <0> d           2.955  -0.360  -0.308  0.00  0.00     0.052 A 
ATOM      8  N1  <0> d           2.031  -0.636  -1.313  0.00  0.00    -0.325 N 
ATOM      9  C9  <0> d           2.579  -0.318   1.039  0.00  0.00     0.028 A 
ATOM     10  C3  <0> d           0.712  -0.492  -1.231  0.00  0.00     0.236 C 
ATOM     11  H5  <0> d           2.385  -0.967  -2.154  0.00  0.00     0.169 HD
ATOM     12  C2  <0> d           0.002  -0.004   0.002  0.00  0.00     0.141 C 
ATOM     13  O1  <0> d           0.043  -0.768  -2.205  0.00  0.00    -0.272 OA
ATOM     14  C1  <0> d          -0.019   1.526   0.010  0.00  0.00     0.031 C 
ATOM     15  S1  <0> d           0.888  -0.610   1.470  0.00  0.00    -0.114 SA
ATOM     16  C8  <0> d           3.514  -0.047   2.029  0.00  0.00     0.022 A 
ATOM     17  C7  <0> d           4.829   0.189   1.691  0.00  0.00     0.018 A 
ENDBRANCH   1   5
BRANCH   3  18
ATOM     18  C11 <0> d           8.929   0.924   0.578  0.00  0.00     0.124 C 
BRANCH  18  19
ATOM     19  C12 <0> d           9.744   1.197   1.844  0.00  0.00     0.047 C 
BRANCH  19  20
ATOM     20  C13 <0> d          11.203   1.460   1.464  0.00  0.00     0.236 C 
BRANCH  20  21
ATOM     21  N3  <0> d          11.985   1.722   2.680  0.00  0.00    -0.071 N 
ATOM     22  C14 <0> d          12.013   0.513   3.514  0.00  0.00     0.270 C 
ATOM     23  H26 <0> d          11.562   2.478   3.196  0.00  0.00     0.279 HD
BRANCH  21  24
ATOM     24  C15 <0> d          13.358   2.091   2.308  0.00  0.00     0.273 C 
BRANCH  24  25
ATOM     25  C16 <0> d          14.126   2.478   3.545  0.00  0.00    -0.033 A 
ATOM     26  C21 <0> d          14.823   1.518   4.255  0.00  0.00     0.009 A 
ATOM     27  C20 <0> d          15.532   1.874   5.387  0.00  0.00     0.001 A 
ATOM     28  C19 <0> d          15.535   3.189   5.815  0.00  0.00     0.000 A 
ATOM     29  C18 <0> d          14.834   4.148   5.109  0.00  0.00     0.001 A 
ATOM     30  C17 <0> d          14.129   3.793   3.974  0.00  0.00     0.009 A 
ENDBRANCH  24  25
ENDBRANCH  21  24
ENDBRANCH  20  21
ENDBRANCH  19  20
ENDBRANCH  18  19
ENDBRANCH   3  18
TORSDOF 7
