REMARK  4 active torsions:
REMARK  status: ('A' for Active; 'I' for Inactive)
REMARK    1  A    between atoms: C3_4  and  S1_11 
REMARK    2  A    between atoms: S1_11  and  N3_14 
REMARK    3  A    between atoms: N3_14  and  C7_15 
REMARK    4  A    between atoms: C12_20  and  O5_21 
ROOT
ATOM      1  S1  <0> d          -2.461  -2.713  -0.170  0.00  0.00     0.266 S 
ATOM      2  O3  <0> d          -2.177  -3.678   0.834  0.00  0.00    -0.200 OA
ATOM      3  O4  <0> d          -3.445  -1.703   0.002  0.00  0.00    -0.200 OA
ENDROOT
BRANCH   1   4
ATOM      4  C3  <0> d          -0.944  -1.886  -0.515  0.00  0.00     0.163 A 
ATOM      5  C2  <0> d           0.198  -2.268   0.094  0.00  0.00     0.126 A 
ATOM      6  N1  <0> d           1.367  -1.615  -0.186  0.00  0.00    -0.312 N 
ATOM      7  C1  <0> d           2.607  -2.029   0.476  0.00  0.00     0.160 C 
ATOM      8  C5  <0> d           1.389  -0.592  -1.060  0.00  0.00     0.330 A 
ATOM      9  N2  <0> d           0.266  -0.194  -1.686  0.00  0.00    -0.269 N 
ATOM     10  O2  <0> d           2.438  -0.022  -1.291  0.00  0.00    -0.246 OA
ATOM     11  C4  <0> d          -0.907  -0.812  -1.437  0.00  0.00     0.276 A 
ATOM     12  C6  <0> d           0.316   0.919  -2.638  0.00  0.00     0.164 C 
ATOM     13  O1  <0> d          -1.924  -0.449  -1.999  0.00  0.00    -0.266 OA
ENDBRANCH   1   4
BRANCH   1  14
ATOM     14  N3  <0> d          -2.880  -3.557  -1.532  0.00  0.00    -0.308 N 
ATOM     15  H10 <0> d          -3.705  -3.347  -1.997  0.00  0.00     0.172 HD
BRANCH  14  16
ATOM     16  C7  <0> d          -2.006  -4.619  -2.034  0.00  0.00     0.121 C 
ATOM     17  C12 <0> d          -1.661  -4.346  -3.499  0.00  0.00     0.141 C 
ATOM     18  C11 <0> d          -0.748  -5.456  -4.024  0.00  0.00     0.034 C 
ATOM     19  C10 <0> d          -1.465  -6.803  -3.910  0.00  0.00     0.003 C 
ATOM     20  C9  <0> d          -1.809  -7.076  -2.444  0.00  0.00     0.002 C 
ATOM     21  C8  <0> d          -2.722  -5.966  -1.920  0.00  0.00     0.028 C 
BRANCH  17  22
ATOM     22  O5  <0> d          -2.863  -4.314  -4.272  0.00  0.00    -0.393 OA
ATOM     23  H19 <0> d          -2.720  -4.145  -5.214  0.00  0.00     0.210 HD
ENDBRANCH  17  22
ENDBRANCH  14  16
ENDBRANCH   1  14
TORSDOF 4
