REMARK  7 active torsions:
REMARK  status: ('A' for Active; 'I' for Inactive)
REMARK    1  A    between atoms: C5_5  and  C8_8 
REMARK    2  A    between atoms: C8_8  and  C9_9 
REMARK    3  A    between atoms: C8_8  and  N2_18 
REMARK    4  A    between atoms: C9_9  and  N1_10 
REMARK    5  A    between atoms: N1_10  and  C10_11 
REMARK    6  A    between atoms: C15_16  and  O1_17 
REMARK    7  A    between atoms: C18_22  and  S1_24 
ROOT
ATOM      1  C8  <0> d           0.029  -4.232  -0.031  0.00  0.00     0.238 C 
ENDROOT
BRANCH   1   2
ATOM      2  C5  <0> d          -0.077  -2.748  -0.270  0.00  0.00    -0.026 A 
ATOM      3  C4  <0> d          -0.139  -2.258  -1.561  0.00  0.00     0.010 A 
ATOM      4  C3  <0> d          -0.237  -0.896  -1.780  0.00  0.00     0.007 A 
ATOM      5  C2  <0> d          -0.274  -0.025  -0.708  0.00  0.00    -0.062 A 
ATOM      6  C1  <0> d          -0.381   1.459  -0.946  0.00  0.00     0.048 C 
ATOM      7  C7  <0> d          -0.206  -0.514   0.584  0.00  0.00     0.007 A 
ATOM      8  C6  <0> d          -0.112  -1.876   0.803  0.00  0.00     0.010 A 
ENDBRANCH   1   2
BRANCH   1   9
ATOM      9  C9  <0> d           1.485  -4.598   0.265  0.00  0.00     0.158 C 
BRANCH   9  10
ATOM     10  N1  <0> d           2.312  -4.301  -0.907  0.00  0.00    -0.385 N 
ATOM     11  H12 <0> d           1.916  -3.876  -1.684  0.00  0.00     0.159 HD
BRANCH  10  12
ATOM     12  C10 <0> d           3.672  -4.631  -0.906  0.00  0.00     0.061 A 
ATOM     13  C15 <0> d           4.460  -4.350  -2.020  0.00  0.00     0.091 A 
ATOM     14  C14 <0> d           5.806  -4.674  -2.012  0.00  0.00     0.039 A 
ATOM     15  C13 <0> d           6.364  -5.285  -0.904  0.00  0.00     0.003 A 
ATOM     16  C12 <0> d           5.581  -5.569   0.200  0.00  0.00     0.002 A 
ATOM     17  C11 <0> d           4.238  -5.244   0.202  0.00  0.00     0.032 A 
BRANCH  13  18
ATOM     18  O1  <0> d           3.909  -3.753  -3.111  0.00  0.00    -0.358 OA
ATOM     19  H17 <0> d           3.942  -2.787  -3.090  0.00  0.00     0.217 HD
ENDBRANCH  13  18
ENDBRANCH  10  12
ENDBRANCH   9  10
ENDBRANCH   1   9
BRANCH   1  20
ATOM     20  N2  <0> d          -0.812  -4.605   1.114  0.00  0.00    -0.057 N 
ATOM     21  C19 <0> d          -2.203  -4.214   0.847  0.00  0.00     0.282 C 
ATOM     22  C18 <0> d          -3.077  -4.586   2.047  0.00  0.00     0.307 C 
ATOM     23  N3  <0> d          -2.993  -6.034   2.280  0.00  0.00     0.100 N 
ATOM     24  C17 <0> d          -1.603  -6.444   2.524  0.00  0.00     0.298 C 
ATOM     25  H22 <0> d          -3.392  -6.548   1.509  0.00  0.00     0.317 HD
ATOM     26  C16 <0> d          -0.741  -6.057   1.320  0.00  0.00     0.265 C 
ATOM     27  H28 <0> d          -0.483  -4.131   1.942  0.00  0.00     0.281 HD
BRANCH  22  28
ATOM     28  S1  <0> d          -4.798  -4.125   1.708  0.00  0.00    -0.137 SA
ATOM     29  C20 <0> d          -5.753  -5.572   2.246  0.00  0.00     0.092 C 
ENDBRANCH  22  28
ENDBRANCH   1  20
TORSDOF 7
