REMARK  3 active torsions:
REMARK  status: ('A' for Active; 'I' for Inactive)
REMARK    1  A    between atoms: C3_4  and  C6_8 
REMARK    2  A    between atoms: C5_6  and  N2_7 
REMARK       I    between atoms: C6_8  and  N3_10 
REMARK    3  A    between atoms: N3_10  and  C7_11 
ROOT
ATOM      1  C6  <0> d           3.720  -0.551  -0.043  0.00  0.00     0.274 C 
ATOM      2  O1  <0> d           3.788  -1.765  -0.047  0.00  0.00    -0.266 OA
ATOM      3  N3  <0> d           4.848   0.187  -0.043  0.00  0.00    -0.319 N 
ATOM      4  H6  <0> d           4.795   1.153  -0.106  0.00  0.00     0.169 HD
ENDROOT
BRANCH   1   5
ATOM      5  C3  <0> d           2.398   0.117  -0.039  0.00  0.00     0.126 A 
ATOM      6  N1  <0> d           2.331   1.444  -0.035  0.00  0.00    -0.255 NA
ATOM      7  C2  <0> d           1.179   2.080  -0.031  0.00  0.00     0.119 A 
ATOM      8  C1  <0> d          -0.018   1.388  -0.031  0.00  0.00     0.048 A 
ATOM      9  C5  <0> d           0.002  -0.006  -0.035  0.00  0.00     0.029 A 
ATOM     10  C4  <0> d           1.239  -0.651  -0.040  0.00  0.00     0.066 A 
BRANCH   9  11
ATOM     11  N2  <0> d          -1.183  -0.736  -0.035  0.00  0.00    -0.399 N 
ATOM     12  H4  <0> d          -2.037  -0.275  -0.031  0.00  0.00     0.156 HD
ATOM     13  H5  <0> d          -1.155  -1.706  -0.037  0.00  0.00     0.156 HD
ENDBRANCH   9  11
ENDBRANCH   1   5
BRANCH   3  14
ATOM     14  C7  <0> d           6.096  -0.442   0.047  0.00  0.00     0.077 A 
ATOM     15  C12 <0> d           7.137   0.173   0.733  0.00  0.00     0.146 A 
ATOM     16  C11 <0> d           8.368  -0.452   0.825  0.00  0.00     0.090 A 
ATOM     17  F1  <0> d           6.946   1.378   1.313  0.00  0.00    -0.204 F 
ATOM     18  C10 <0> d           8.566  -1.683   0.226  0.00  0.00     0.157 A 
ATOM     19  C9  <0> d           7.531  -2.297  -0.463  0.00  0.00     0.157 A 
ATOM     20  F2  <0> d           9.771  -2.290   0.314  0.00  0.00    -0.203 F 
ATOM     21  C8  <0> d           6.297  -1.678  -0.553  0.00  0.00     0.078 A 
ATOM     22  F3  <0> d           7.727  -3.499  -1.046  0.00  0.00    -0.203 F 
ENDBRANCH   3  14
TORSDOF 3
