REMARK  6 active torsions:
REMARK  status: ('A' for Active; 'I' for Inactive)
REMARK    1  A    between atoms: C2_2  and  O1_4 
REMARK    2  A    between atoms: O1_4  and  C4_5 
REMARK    3  A    between atoms: C4_5  and  C5_7 
REMARK    4  A    between atoms: C5_7  and  N1_8 
REMARK       I    between atoms: N1_8  and  C6_9 
REMARK    5  A    between atoms: C6_9  and  C7_11 
REMARK       I    between atoms: N2_13  and  C15_21 
REMARK    6  A    between atoms: C15_21  and  C16_23 
ROOT
ATOM      1  C7  <0> d          -4.032  -5.571  -2.210  0.00  0.00     0.106 C 
ATOM      2  C8  <0> d          -3.732  -5.350  -3.709  0.00  0.00     0.140 C 
ATOM      3  N2  <0> d          -4.574  -6.348  -4.410  0.00  0.00    -0.350 N 
ATOM      4  C9  <0> d          -5.849  -6.352  -3.654  0.00  0.00     0.136 C 
ATOM      5  C10 <0> d          -5.423  -6.228  -2.178  0.00  0.00    -0.007 C 
ATOM      6  C11 <0> d          -6.407  -5.345  -1.417  0.00  0.00     0.039 C 
ATOM      7  C12 <0> d          -7.767  -6.045  -1.348  0.00  0.00     0.233 C 
ATOM      8  N3  <0> d          -7.619  -7.340  -0.674  0.00  0.00    -0.075 N 
ATOM      9  C13 <0> d          -6.743  -8.217  -1.461  0.00  0.00     0.233 C 
ATOM     10  C14 <0> d          -5.340  -7.609  -1.534  0.00  0.00     0.039 C 
ATOM     11  C15 <0> d          -4.253  -7.086  -5.492  0.00  0.00     0.224 C 
ATOM     12  O4  <0> d          -5.058  -7.867  -5.954  0.00  0.00    -0.273 OA
ATOM     13  H20 <0> d          -7.216  -7.198   0.240  0.00  0.00     0.277 HD
ATOM     14  H34 <0> d          -8.525  -7.773  -0.575  0.00  0.00     0.277 HD
ENDROOT
BRANCH   1  15
ATOM     15  C6  <0> d          -4.058  -4.253  -1.480  0.00  0.00     0.224 C 
ATOM     16  N1  <0> d          -3.729  -4.200  -0.174  0.00  0.00    -0.351 N 
ATOM     17  H11 <0> d          -3.477  -5.010   0.297  0.00  0.00     0.163 HD
ATOM     18  O3  <0> d          -4.374  -3.240  -2.067  0.00  0.00    -0.273 OA
BRANCH  16  19
ATOM     19  C5  <0> d          -3.754  -2.918   0.536  0.00  0.00     0.233 C 
BRANCH  19  20
ATOM     20  C4  <0> d          -3.349  -3.131   1.972  0.00  0.00     0.277 C 
ATOM     21  O2  <0> d          -3.069  -4.240   2.362  0.00  0.00    -0.263 OA
BRANCH  20  22
ATOM     22  O1  <0> d          -3.300  -2.090   2.817  0.00  0.00    -0.316 OA
BRANCH  22  23
ATOM     23  C2  <0> d          -2.908  -2.364   4.163  0.00  0.00     0.123 C 
ATOM     24  C1  <0> d          -2.201  -1.140   4.749  0.00  0.00     0.040 C 
ATOM     25  C3  <0> d          -4.148  -2.686   5.000  0.00  0.00     0.040 C 
ENDBRANCH  22  23
ENDBRANCH  20  22
ENDBRANCH  19  20
ENDBRANCH  16  19
ENDBRANCH   1  15
BRANCH  11  26
ATOM     26  C16 <0> d          -2.893  -6.941  -6.126  0.00  0.00     0.082 C 
ATOM     27  C20 <0> d          -2.786  -7.885  -7.328  0.00  0.00     0.040 C 
ATOM     28  C19 <0> d          -1.433  -7.674  -8.012  0.00  0.00     0.168 C 
ATOM     29  O5  <0> d          -1.307  -6.306  -8.405  0.00  0.00    -0.391 OA
ATOM     30  C18 <0> d          -1.353  -5.380  -7.317  0.00  0.00     0.168 C 
ATOM     31  C17 <0> d          -2.703  -5.499  -6.604  0.00  0.00     0.040 C 
ENDBRANCH  11  26
TORSDOF 6
