REMARK  6 active torsions:
REMARK  status: ('A' for Active; 'I' for Inactive)
REMARK    1  A    between atoms: C3_3  and  C7_11 
REMARK    2  A    between atoms: C4_5  and  C5_6 
REMARK    3  A    between atoms: C5_6  and  C6_7 
REMARK       I    between atoms: C6_7  and  N2_9 
REMARK    4  A    between atoms: N2_9  and  N3_10 
REMARK    5  A    between atoms: C7_11  and  C8_12 
REMARK       I    between atoms: C8_12  and  N4_14 
REMARK    6  A    between atoms: N4_14  and  N5_15 
ROOT
ATOM      1  C1  <0> d          -0.018   1.509   0.010  0.00  0.00     0.003 A 
ATOM      2  C2  <0> d           1.257   1.892   0.000  0.00  0.00     0.025 A 
ATOM      3  C3  <0> d           2.121   0.711  -0.014  0.00  0.00     0.038 A 
ATOM      4  N1  <0> d           1.423  -0.376  -0.013  0.00  0.00    -0.284 NA
ATOM      5  C4  <0> d           0.002  -0.004   0.002  0.00  0.00     0.140 A 
ENDROOT
BRANCH   3   6
ATOM      6  C7  <0> d           3.627   0.756  -0.029  0.00  0.00     0.163 C 
BRANCH   6   7
ATOM      7  C8  <0> d           4.172  -0.649  -0.042  0.00  0.00     0.237 C 
ATOM      8  O2  <0> d           3.412  -1.594  -0.039  0.00  0.00    -0.272 OA
ATOM      9  N4  <0> d           5.504  -0.855  -0.056  0.00  0.00    -0.294 N 
ATOM     10  H11 <0> d           6.112  -0.099  -0.058  0.00  0.00     0.183 HD
BRANCH   9  11
ATOM     11  N5  <0> d           5.998  -2.129  -0.067  0.00  0.00    -0.247 NA
ATOM     12  H12 <0> d           5.630  -2.652  -0.848  0.00  0.00     0.143 HD
ATOM     13  H13 <0> d           7.007  -2.125  -0.077  0.00  0.00     0.143 HD
ENDBRANCH   9  11
ENDBRANCH   6   7
ENDBRANCH   3   6
BRANCH   5  14
ATOM     14  C5  <0> d          -0.674  -0.550   1.261  0.00  0.00     0.135 C 
BRANCH  14  15
ATOM     15  C6  <0> d          -0.754  -2.053   1.177  0.00  0.00     0.234 C 
ATOM     16  O1  <0> d          -0.313  -2.630   0.206  0.00  0.00    -0.272 OA
ATOM     17  N2  <0> d          -1.315  -2.755   2.182  0.00  0.00    -0.294 N 
ATOM     18  H6  <0> d          -1.668  -2.293   2.958  0.00  0.00     0.183 HD
BRANCH  17  19
ATOM     19  N3  <0> d          -1.387  -4.117   2.106  0.00  0.00    -0.247 NA
ATOM     20  H7  <0> d          -0.473  -4.520   1.966  0.00  0.00     0.143 HD
ATOM     21  H8  <0> d          -1.830  -4.501   2.927  0.00  0.00     0.143 HD
ENDBRANCH  17  19
ENDBRANCH  14  15
ENDBRANCH   5  14
TORSDOF 6
