REMARK  8 active torsions:
REMARK  status: ('A' for Active; 'I' for Inactive)
REMARK    1  A    between atoms: C3_3  and  C7_10 
REMARK    2  A    between atoms: C5_5  and  N1_7 
REMARK       I    between atoms: C7_10  and  N2_12 
REMARK    3  A    between atoms: N2_12  and  C8_13 
REMARK    4  A    between atoms: C8_13  and  C16_22 
REMARK    5  A    between atoms: C9_14  and  C10_15 
REMARK       I    between atoms: C16_22  and  N3_24 
REMARK    6  A    between atoms: N3_24  and  C17_25 
REMARK    7  A    between atoms: C17_25  and  C18_26 
REMARK    8  A    between atoms: C18_26  and  C19_27 
ROOT
ATOM      1  C8  <0> d           4.795   4.193   0.000  0.00  0.00     0.104 C 
ATOM      2  C9  <0> d           4.747   5.542  -0.098  0.00  0.00     0.046 C 
ENDROOT
BRANCH   1   3
ATOM      3  N2  <0> d           3.616   3.463   0.177  0.00  0.00    -0.318 N 
ATOM      4  C7  <0> d           3.672   2.131   0.376  0.00  0.00     0.256 C 
ATOM      5  O3  <0> d           4.739   1.551   0.313  0.00  0.00    -0.267 OA
ATOM      6  H5  <0> d           2.758   3.915   0.157  0.00  0.00     0.169 HD
BRANCH   4   7
ATOM      7  C3  <0> d           2.436   1.375   0.669  0.00  0.00     0.034 A 
ATOM      8  C2  <0> d           1.210   2.038   0.741  0.00  0.00     0.017 A 
ATOM      9  C1  <0> d           0.060   1.326   1.015  0.00  0.00     0.003 A 
ATOM     10  C6  <0> d           0.120  -0.041   1.218  0.00  0.00     0.036 A 
ATOM     11  C5  <0> d           1.333  -0.704   1.148  0.00  0.00     0.103 A 
ATOM     12  C4  <0> d           2.490  -0.005   0.875  0.00  0.00     0.053 A 
BRANCH  11  13
ATOM     13  N1  <0> d           1.388  -2.167   1.366  0.00  0.00    -0.116 N 
ATOM     14  O1  <0> d           2.447  -2.748   1.305  0.00  0.00    -0.532 OA
ATOM     15  O2  <0> d           0.375  -2.781   1.605  0.00  0.00    -0.532 OA
ENDBRANCH  11  13
ENDBRANCH   4   7
ENDBRANCH   1   3
BRANCH   1  16
ATOM     16  C16 <0> d           6.087   3.496  -0.079  0.00  0.00     0.268 C 
ATOM     17  O4  <0> d           6.345   2.802  -1.045  0.00  0.00    -0.266 OA
ATOM     18  N3  <0> d           6.985   3.624   0.918  0.00  0.00    -0.355 N 
ATOM     19  H11 <0> d           6.751   4.117   1.720  0.00  0.00     0.162 HD
BRANCH  18  20
ATOM     20  C17 <0> d           8.313   3.020   0.790  0.00  0.00     0.133 C 
BRANCH  20  21
ATOM     21  C18 <0> d           9.130   3.312   2.050  0.00  0.00     0.133 C 
BRANCH  21  22
ATOM     22  C19 <0> d          10.496   2.690   1.918  0.00  0.00     0.174 C 
ATOM     23  O5  <0> d          10.790   2.071   0.910  0.00  0.00    -0.648 OA
ATOM     24  O6  <0> d          11.309   2.807   2.820  0.00  0.00    -0.648 OA
ENDBRANCH  21  22
ENDBRANCH  20  21
ENDBRANCH  18  20
ENDBRANCH   1  16
BRANCH   2  25
ATOM     25  C10 <0> d           5.964   6.299  -0.430  0.00  0.00    -0.034 A 
ATOM     26  C15 <0> d           6.143   7.595   0.065  0.00  0.00     0.013 A 
ATOM     27  C14 <0> d           7.288   8.296  -0.246  0.00  0.00     0.024 A 
ATOM     28  C13 <0> d           8.256   7.724  -1.057  0.00  0.00     0.034 A 
ATOM     29  C12 <0> d           8.083   6.443  -1.556  0.00  0.00     0.024 A 
ATOM     30 Cl1  <0> d           9.691   8.617  -1.450  0.00  0.00    -0.084 Cl
ATOM     31  C11 <0> d           6.945   5.728  -1.248  0.00  0.00     0.013 A 
ENDBRANCH   2  25
TORSDOF 8
