REMARK  5 active torsions:
REMARK  status: ('A' for Active; 'I' for Inactive)
REMARK    1  A    between atoms: C2_2  and  N1_5 
REMARK    2  A    between atoms: C5_6  and  C6_10 
REMARK    3  A    between atoms: C6_10  and  C7_11 
REMARK    4  A    between atoms: C6_10  and  N6_24 
REMARK    5  A    between atoms: C12_16  and  O2_22 
ROOT
ATOM      1  C6  <0> d          -0.535  -0.896  -3.298  0.00  0.00     0.247 C 
ENDROOT
BRANCH   1   2
ATOM      2  C5  <0> d          -0.005   0.204  -2.376  0.00  0.00     0.260 A 
ATOM      3  N1  <0> d           1.228   0.796  -2.935  0.00  0.00    -0.176 NA
ATOM      4  N4  <0> d           0.915   2.115  -3.134  0.00  0.00    -0.218 N 
ATOM      5  N3  <0> d          -0.402   2.340  -2.734  0.00  0.00    -0.060 NA
ATOM      6  H13 <0> d           1.515   2.787  -3.494  0.00  0.00     0.206 HD
ATOM      7  N2  <0> d          -0.954   1.323  -2.310  0.00  0.00    -0.149 NA
BRANCH   3   8
ATOM      8  C2  <0> d           2.351   0.656  -1.999  0.00  0.00     0.025 C 
ATOM      9  C1  <0> d           2.015   1.372  -0.689  0.00  0.00     0.033 C 
ATOM     10  C3  <0> d           3.607   1.278  -2.612  0.00  0.00     0.033 C 
ATOM     11  C4  <0> d           2.601  -0.827  -1.720  0.00  0.00     0.033 C 
ENDBRANCH   3   8
ENDBRANCH   1   2
BRANCH   1  12
ATOM     12  C7  <0> d          -1.706  -1.610  -2.620  0.00  0.00     0.136 A 
ATOM     13  C15 <0> d          -1.188  -2.242  -1.347  0.00  0.00     0.232 A 
ATOM     14  N5  <0> d          -1.731  -1.919  -0.187  0.00  0.00    -0.326 N 
ATOM     15  O1  <0> d          -0.275  -3.045  -1.391  0.00  0.00    -0.272 OA
ATOM     16  C14 <0> d          -2.735  -1.047  -0.071  0.00  0.00     0.047 A 
ATOM     17  H31 <0> d          -1.384  -2.335   0.618  0.00  0.00     0.169 HD
ATOM     18  C9  <0> d          -3.320  -0.369  -1.242  0.00  0.00    -0.012 A 
ATOM     19  C13 <0> d          -3.262  -0.754   1.194  0.00  0.00     0.067 A 
ATOM     20  C8  <0> d          -2.845  -0.619  -2.493  0.00  0.00     0.003 A 
ATOM     21  C10 <0> d          -4.420   0.576  -1.035  0.00  0.00     0.016 A 
ATOM     22  C11 <0> d          -4.867   0.800   0.224  0.00  0.00     0.037 A 
ATOM     23  C12 <0> d          -4.298   0.145   1.326  0.00  0.00     0.070 A 
BRANCH  23  24
ATOM     24  O2  <0> d          -4.784   0.405   2.563  0.00  0.00    -0.356 OA
ATOM     25  C16 <0> d          -5.858   1.343   2.655  0.00  0.00     0.210 C 
ENDBRANCH  23  24
ENDBRANCH   1  12
BRANCH   1  26
ATOM     26  N6  <0> d          -0.992  -0.298  -4.560  0.00  0.00    -0.062 N 
ATOM     27  C21 <0> d           0.165   0.214  -5.304  0.00  0.00     0.235 C 
ATOM     28  C20 <0> d          -0.311   0.910  -6.581  0.00  0.00     0.028 C 
ATOM     29  C19 <0> d          -1.073  -0.096  -7.449  0.00  0.00     0.003 C 
ATOM     30  C18 <0> d          -2.234  -0.679  -6.638  0.00  0.00     0.028 C 
ATOM     31  C17 <0> d          -1.686  -1.316  -5.359  0.00  0.00     0.235 C 
ATOM     32  H32 <0> d          -1.626   0.461  -4.362  0.00  0.00     0.280 HD
ENDBRANCH   1  26
TORSDOF 5
