REMARK  6 active torsions:
REMARK  status: ('A' for Active; 'I' for Inactive)
REMARK    1  A    between atoms: C4_5  and  C6_8 
REMARK    2  A    between atoms: C6_8  and  N3_9 
REMARK    3  A    between atoms: C9_12  and  C11_14 
REMARK    4  A    between atoms: C11_14  and  N4_15 
REMARK       I    between atoms: N4_15  and  C12_16 
REMARK    5  A    between atoms: C12_16  and  C13_18 
REMARK    6  A    between atoms: C13_18  and  C14_19 
ROOT
ATOM      1  N3  <0> d           1.450  -4.656  -0.031  0.00  0.00    -0.067 N 
ATOM      2  C7  <0> d           2.097  -4.269  -1.302  0.00  0.00     0.235 C 
ATOM      3  C8  <0> d           3.038  -5.452  -1.643  0.00  0.00     0.035 C 
ATOM      4  C9  <0> d           2.197  -6.667  -1.170  0.00  0.00     0.031 C 
ATOM      5  C10 <0> d           1.476  -6.126   0.082  0.00  0.00     0.241 C 
ATOM      6  H29 <0> d           1.953  -4.247   0.742  0.00  0.00     0.280 HD
ENDROOT
BRANCH   4   7
ATOM      7  C11 <0> d           3.104  -7.846  -0.810  0.00  0.00     0.129 C 
BRANCH   7   8
ATOM      8  N4  <0> d           3.769  -8.337  -2.019  0.00  0.00    -0.360 N 
ATOM      9  C12 <0> d           4.622  -9.378  -1.943  0.00  0.00     0.221 C 
ATOM     10  O1  <0> d           4.838  -9.908  -0.874  0.00  0.00    -0.273 OA
ATOM     11  H17 <0> d           3.596  -7.914  -2.874  0.00  0.00     0.162 HD
BRANCH   9  12
ATOM     12  C13 <0> d           5.306  -9.884  -3.187  0.00  0.00     0.136 C 
BRANCH  12  13
ATOM     13  C14 <0> d           6.200 -11.045  -2.832  0.00  0.00    -0.075 C 
ATOM     14  C19 <0> d           7.586 -10.742  -2.345  0.00  0.00     0.034 C 
ATOM     15  C18 <0> d           8.175 -11.968  -1.641  0.00  0.00     0.005 C 
ATOM     16  C17 <0> d           7.986 -13.185  -2.556  0.00  0.00     0.004 C 
ATOM     17  C16 <0> d           6.489 -13.492  -2.650  0.00  0.00     0.027 C 
ATOM     18  C15 <0> d           5.725 -12.241  -2.971  0.00  0.00    -0.023 C 
ENDBRANCH  12  13
ENDBRANCH   9  12
ENDBRANCH   7   8
ENDBRANCH   4   7
BRANCH   1  19
ATOM     19  C6  <0> d           0.058  -4.184  -0.021  0.00  0.00     0.276 C 
BRANCH  19  20
ATOM     20  C4  <0> d           0.038  -2.678  -0.013  0.00  0.00     0.003 A 
ATOM     21  C3  <0> d           0.023  -1.962  -1.199  0.00  0.00     0.129 A 
ATOM     22  N1  <0> d           0.005  -0.639  -1.153  0.00  0.00    -0.245 NA
ATOM     23  C2  <0> d           0.002  -0.004   0.002  0.00  0.00     0.121 A 
ATOM     24  C1  <0> d          -0.018   1.503   0.010  0.00  0.00     0.093 C 
ATOM     25  N2  <0> d           0.022  -0.652   1.150  0.00  0.00    -0.245 NA
ATOM     26  C5  <0> d           0.035  -1.974   1.182  0.00  0.00     0.129 A 
ENDBRANCH  19  20
ENDBRANCH   1  19
TORSDOF 6
