REMARK  4 active torsions:
REMARK  status: ('A' for Active; 'I' for Inactive)
REMARK    1  A    between atoms: C4_6  and  C10_16 
REMARK    2  A    between atoms: C5_8  and  C8_12 
REMARK    3  A    between atoms: C8_12  and  O4_14 
REMARK    4  A    between atoms: C11_18  and  C13_21 
ROOT
ATOM      1  C1  <0> d          -0.018   1.461   0.010  0.00  0.00     0.162 C 
ATOM      2  N1  <0> d           0.002  -0.004   0.002  0.00  0.00    -0.292 N 
ATOM      3  C2  <0> d          -1.113  -0.743   0.004  0.00  0.00     0.233 A 
ATOM      4  O1  <0> d          -2.244  -0.305   0.011  0.00  0.00    -0.272 OA
ATOM      5  C3  <0> d          -0.744  -2.209  -0.006  0.00  0.00     0.134 A 
ATOM      6  C4  <0> d          -1.154  -2.827  -1.360  0.00  0.00     0.294 C 
ATOM      7  N2  <0> d           0.000  -2.567  -2.257  0.00  0.00     0.110 N 
ATOM      8  C5  <0> d           1.190  -2.795  -1.398  0.00  0.00     0.334 C 
ATOM      9  C6  <0> d           0.808  -2.188  -0.014  0.00  0.00     0.137 A 
ATOM     10  C7  <0> d           1.137  -0.712  -0.013  0.00  0.00     0.233 A 
ATOM     11  O2  <0> d           2.255  -0.244  -0.022  0.00  0.00    -0.272 OA
ATOM     12  H8  <0> d          -0.004  -3.199  -3.044  0.00  0.00     0.318 HD
ENDROOT
BRANCH   6  13
ATOM     13  C10 <0> d          -2.395  -2.156  -1.889  0.00  0.00     0.109 A 
ATOM     14  S1  <0> d          -2.539  -0.633  -2.588  0.00  0.00    -0.082 SA
ATOM     15  C12 <0> d          -4.296  -0.667  -2.904  0.00  0.00     0.084 A 
ATOM     16  C11 <0> d          -4.617  -1.904  -2.410  0.00  0.00     0.074 A 
ATOM     17  N3  <0> d          -3.619  -2.617  -1.908  0.00  0.00    -0.243 NA
BRANCH  16  18
ATOM     18  C13 <0> d          -6.008  -2.418  -2.437  0.00  0.00    -0.007 A 
ATOM     19  C18 <0> d          -7.012  -1.686  -3.067  0.00  0.00     0.014 A 
ATOM     20  C17 <0> d          -8.304  -2.172  -3.093  0.00  0.00     0.001 A 
ATOM     21  C16 <0> d          -8.604  -3.378  -2.487  0.00  0.00     0.000 A 
ATOM     22  C15 <0> d          -7.612  -4.107  -1.856  0.00  0.00     0.001 A 
ATOM     23  C14 <0> d          -6.316  -3.634  -1.829  0.00  0.00     0.014 A 
ENDBRANCH  16  18
ENDBRANCH   6  13
BRANCH   8  24
ATOM     24  C8  <0> d           2.393  -2.091  -1.970  0.00  0.00     0.292 C 
ATOM     25  O3  <0> d           2.248  -1.202  -2.775  0.00  0.00    -0.263 OA
BRANCH  24  26
ATOM     26  O4  <0> d           3.627  -2.452  -1.584  0.00  0.00    -0.325 OA
ATOM     27  C9  <0> d           4.723  -1.742  -2.167  0.00  0.00     0.213 C 
ENDBRANCH  24  26
ENDBRANCH   8  24
TORSDOF 4
