REMARK  6 active torsions:
REMARK  status: ('A' for Active; 'I' for Inactive)
REMARK    1  A    between atoms: C5_5  and  N1_8 
REMARK    2  A    between atoms: N1_8  and  C8_9 
REMARK    3  A    between atoms: N3_11  and  C10_15 
REMARK    4  A    between atoms: C10_15  and  N4_16 
REMARK    5  A    between atoms: C14_20  and  C16_22 
REMARK    6  A    between atoms: C16_22  and  N5_23 
REMARK       I    between atoms: N5_23  and  C17_24 
ROOT
ATOM      1  C8  <0> d           0.177  -4.867   1.173  0.00  0.00     0.193 A 
ATOM      2  N2  <0> d           0.306  -6.155   1.363  0.00  0.00    -0.143 NA
ATOM      3  N3  <0> d           0.412  -6.666   2.636  0.00  0.00    -0.224 N 
ATOM      4  C9  <0> d           0.380  -5.807   3.686  0.00  0.00     0.166 A 
ATOM      5  S1  <0> d           0.487  -6.135   5.363  0.00  0.00    -0.051 SA
ATOM      6  S2  <0> d           0.203  -4.241   2.845  0.00  0.00    -0.019 SA
ENDROOT
BRANCH   3   7
ATOM      7  C10 <0> d           0.557  -8.107   2.854  0.00  0.00     0.387 C 
BRANCH   7   8
ATOM      8  N4  <0> d           1.925  -8.520   2.512  0.00  0.00    -0.053 N 
ATOM      9  C15 <0> d           2.034  -9.980   2.615  0.00  0.00     0.243 C 
ATOM     10  C14 <0> d           3.434 -10.422   2.182  0.00  0.00     0.029 C 
ATOM     11  C13 <0> d           4.475  -9.764   3.092  0.00  0.00     0.009 C 
ATOM     12  C12 <0> d           4.303  -8.244   3.034  0.00  0.00     0.028 C 
ATOM     13  C11 <0> d           2.871  -7.882   3.435  0.00  0.00     0.237 C 
ATOM     14  H26 <0> d           2.135  -8.233   1.567  0.00  0.00     0.281 HD
BRANCH  10  15
ATOM     15  C16 <0> d           3.547 -11.944   2.293  0.00  0.00     0.128 C 
BRANCH  15  16
ATOM     16  N5  <0> d           4.846 -12.376   1.770  0.00  0.00    -0.361 N 
ATOM     17  C17 <0> d           5.168 -13.684   1.767  0.00  0.00     0.213 C 
ATOM     18  O1  <0> d           4.384 -14.504   2.196  0.00  0.00    -0.274 OA
ATOM     19  C18 <0> d           6.504 -14.129   1.229  0.00  0.00     0.117 C 
ATOM     20  H22 <0> d           5.473 -11.720   1.427  0.00  0.00     0.162 HD
ENDBRANCH  15  16
ENDBRANCH  10  15
ENDBRANCH   7   8
ENDBRANCH   3   7
BRANCH   1  21
ATOM     21  N1  <0> d           0.057  -4.168  -0.021  0.00  0.00    -0.334 N 
ATOM     22  H9  <0> d          -0.017  -4.650  -0.860  0.00  0.00     0.168 HD
BRANCH  21  23
ATOM     23  C5  <0> d           0.044  -2.771  -0.014  0.00  0.00     0.034 A 
ATOM     24  C4  <0> d           0.793  -2.072   0.924  0.00  0.00     0.030 A 
ATOM     25  C3  <0> d           0.778  -0.691   0.928  0.00  0.00     0.009 A 
ATOM     26  C2  <0> d           0.018  -0.004  -0.000  0.00  0.00    -0.062 A 
ATOM     27  C1  <0> d           0.004   1.503   0.007  0.00  0.00     0.048 C 
ATOM     28  C7  <0> d          -0.734  -0.696  -0.932  0.00  0.00     0.009 A 
ATOM     29  C6  <0> d          -0.719  -2.077  -0.945  0.00  0.00     0.030 A 
ENDBRANCH  21  23
ENDBRANCH   1  21
TORSDOF 6
