REMARK  7 active torsions:
REMARK  status: ('A' for Active; 'I' for Inactive)
REMARK    1  A    between atoms: C6_6  and  N1_8 
REMARK    2  A    between atoms: C8_9  and  N2_10 
REMARK    3  A    between atoms: C8_9  and  S1_11 
REMARK    4  A    between atoms: S1_11  and  C9_12 
REMARK    5  A    between atoms: C9_12  and  C10_13 
REMARK       I    between atoms: C10_13  and  N3_15 
REMARK    6  A    between atoms: N3_15  and  C12_17 
REMARK    7  A    between atoms: C12_17  and  C13_18 
ROOT
ATOM      1  N1  <0> d           0.023  -2.764   2.377  0.00  0.00    -0.225 NA
ATOM      2  C8  <0> d          -0.806  -3.766   2.562  0.00  0.00     0.160 C 
ENDROOT
BRANCH   2   3
ATOM      3  N2  <0> d          -1.648  -4.156   1.549  0.00  0.00    -0.378 N 
ATOM      4  H8  <0> d          -1.561  -3.762   0.667  0.00  0.00     0.158 HD
ATOM      5  H9  <0> d          -2.330  -4.826   1.716  0.00  0.00     0.158 HD
ENDBRANCH   2   3
BRANCH   2   6
ATOM      6  S1  <0> d          -0.837  -4.610   4.108  0.00  0.00    -0.083 SA
BRANCH   6   7
ATOM      7  C9  <0> d           0.420  -3.756   5.099  0.00  0.00     0.185 C 
BRANCH   7   8
ATOM      8  C10 <0> d           0.496  -4.388   6.465  0.00  0.00     0.229 C 
ATOM      9  O1  <0> d          -0.226  -5.322   6.743  0.00  0.00    -0.273 OA
ATOM     10  N3  <0> d           1.367  -3.915   7.379  0.00  0.00    -0.352 N 
ATOM     11  C11 <0> d           2.240  -2.786   7.043  0.00  0.00     0.153 C 
BRANCH  10  12
ATOM     12  C12 <0> d           1.442  -4.529   8.707  0.00  0.00     0.164 C 
BRANCH  12  13
ATOM     13  C13 <0> d           2.455  -5.644   8.688  0.00  0.00    -0.033 A 
ATOM     14  C16 <0> d           3.755  -5.396   8.982  0.00  0.00     0.058 A 
ATOM     15  S2  <0> d           4.486  -7.017   8.818  0.00  0.00    -0.113 SA
ATOM     16  C15 <0> d           3.011  -7.912   8.359  0.00  0.00     0.050 A 
ATOM     17  C14 <0> d           2.075  -6.933   8.366  0.00  0.00     0.016 A 
ENDBRANCH  12  13
ENDBRANCH  10  12
ENDBRANCH   7   8
ENDBRANCH   6   7
ENDBRANCH   2   6
BRANCH   1  18
ATOM     18  C6  <0> d          -0.032  -2.034   1.219  0.00  0.00     0.060 A 
ATOM     19  C5  <0> d           1.115  -1.865   0.441  0.00  0.00     0.031 A 
ATOM     20  C4  <0> d           1.052  -1.128  -0.724  0.00  0.00     0.003 A 
ATOM     21  C3  <0> d          -0.145  -0.558  -1.121  0.00  0.00     0.007 A 
ATOM     22  C2  <0> d          -1.285  -0.722  -0.355  0.00  0.00    -0.060 A 
ATOM     23  C1  <0> d          -2.583  -0.097  -0.796  0.00  0.00     0.048 C 
ATOM     24  C7  <0> d          -1.235  -1.451   0.815  0.00  0.00     0.038 A 
ENDBRANCH   1  18
TORSDOF 7
