REMARK  6 active torsions:
REMARK  status: ('A' for Active; 'I' for Inactive)
REMARK    1  A    between atoms: C5_5  and  C8_8 
REMARK    2  A    between atoms: C8_8  and  C9_9 
REMARK    3  A    between atoms: C8_8  and  N3_16 
REMARK    4  A    between atoms: C9_9  and  N1_10 
REMARK    5  A    between atoms: N1_10  and  S1_11 
REMARK    6  A    between atoms: S1_11  and  N2_14 
ROOT
ATOM      1  C8  <0> d           0.086  -4.411  -0.106  0.00  0.00     0.239 C 
ENDROOT
BRANCH   1   2
ATOM      2  C5  <0> d           0.215  -2.910  -0.054  0.00  0.00    -0.026 A 
ATOM      3  C4  <0> d           0.203  -2.174  -1.224  0.00  0.00     0.010 A 
ATOM      4  C3  <0> d           0.321  -0.797  -1.175  0.00  0.00     0.007 A 
ATOM      5  C2  <0> d           0.450  -0.157   0.043  0.00  0.00    -0.062 A 
ATOM      6  C1  <0> d           0.578   1.344   0.096  0.00  0.00     0.048 C 
ATOM      7  C7  <0> d           0.466  -0.894   1.213  0.00  0.00     0.007 A 
ATOM      8  C6  <0> d           0.345  -2.270   1.165  0.00  0.00     0.010 A 
ENDBRANCH   1   2
BRANCH   1   9
ATOM      9  C9  <0> d          -1.356  -4.810   0.214  0.00  0.00     0.171 C 
BRANCH   9  10
ATOM     10  N1  <0> d          -2.244  -4.322  -0.844  0.00  0.00    -0.301 N 
ATOM     11  H11 <0> d          -1.936  -3.639  -1.459  0.00  0.00     0.173 HD
BRANCH  10  12
ATOM     12  S1  <0> d          -3.775  -4.937  -0.988  0.00  0.00     0.314 S 
ATOM     13  O1  <0> d          -4.387  -4.253  -2.073  0.00  0.00    -0.183 OA
ATOM     14  O2  <0> d          -3.650  -6.352  -0.953  0.00  0.00    -0.183 OA
BRANCH  12  15
ATOM     15  N2  <0> d          -4.608  -4.501   0.376  0.00  0.00    -0.307 N 
ATOM     16  C10 <0> d          -4.881  -3.088   0.647  0.00  0.00     0.161 C 
ATOM     17  H12 <0> d          -4.915  -5.182   0.995  0.00  0.00     0.173 HD
ENDBRANCH  12  15
ENDBRANCH  10  12
ENDBRANCH   9  10
ENDBRANCH   1   9
BRANCH   1  18
ATOM     18  N3  <0> d           0.992  -5.015   0.879  0.00  0.00    -0.061 N 
ATOM     19  C14 <0> d           0.949  -6.484   0.757  0.00  0.00     0.236 C 
ATOM     20  C13 <0> d           2.383  -6.958   0.437  0.00  0.00     0.029 C 
ATOM     21  C12 <0> d           3.261  -5.790   0.956  0.00  0.00     0.029 C 
ATOM     22  C11 <0> d           2.377  -4.562   0.626  0.00  0.00     0.236 C 
ATOM     23  H24 <0> d           0.713  -4.743   1.810  0.00  0.00     0.280 HD
ENDBRANCH   1  18
TORSDOF 6
