REMARK  4 active torsions:
REMARK  status: ('A' for Active; 'I' for Inactive)
REMARK    1  A    between atoms: C2_2  and  C5_8 
REMARK    2  A    between atoms: C5_8  and  C6_9 
REMARK    3  A    between atoms: C5_8  and  N1_13 
REMARK    4  A    between atoms: C6_9  and  C7_10 
ROOT
ATOM      1  C5  <0> d           1.204   3.545   0.009  0.00  0.00     0.218 C 
ENDROOT
BRANCH   1   2
ATOM      2  C2  <0> d           1.184   2.038   0.002  0.00  0.00    -0.002 A 
ATOM      3  C1  <0> d          -0.016   1.352   0.009  0.00  0.00     0.037 A 
ATOM      4  C4  <0> d           0.002  -0.004   0.002  0.00  0.00     0.053 A 
ATOM      5  S1  <0> d           1.753  -0.350  -0.017  0.00  0.00    -0.074 SA
ATOM      6 Br1  <0> d          -1.451  -1.215   0.010  0.00  0.00    -0.043 Br
ATOM      7  C3  <0> d           2.343   1.335  -0.013  0.00  0.00     0.061 A 
ATOM      8 Br2  <0> d           4.123   1.973  -0.027  0.00  0.00    -0.042 Br
ENDBRANCH   1   2
BRANCH   1   9
ATOM      9  C6  <0> d           1.474   4.045   1.430  0.00  0.00     0.042 C 
BRANCH   9  10
ATOM     10  C7  <0> d           1.618   5.568   1.416  0.00  0.00    -0.012 A 
ATOM     11  C9  <0> d           2.009   6.253   2.727  0.00  0.00     0.005 A 
ATOM     12  C8  <0> d           0.581   6.382   2.193  0.00  0.00     0.005 A 
ENDBRANCH   9  10
ENDBRANCH   1   9
BRANCH   1  13
ATOM     13  N1  <0> d          -0.096   4.054  -0.450  0.00  0.00    -0.071 N 
ATOM     14  H10 <0> d          -0.823   3.724   0.167  0.00  0.00     0.275 HD
ATOM     15  H11 <0> d          -0.083   5.063  -0.445  0.00  0.00     0.275 HD
ATOM     16  H12 <0> d          -0.274   3.725  -1.387  0.00  0.00     0.275 HD
ENDBRANCH   1  13
TORSDOF 4
