REMARK  6 active torsions:
REMARK  status: ('A' for Active; 'I' for Inactive)
REMARK    1  A    between atoms: C4_4  and  C7_7 
REMARK    2  A    between atoms: C7_7  and  O4_27 
REMARK    3  A    between atoms: N1_14  and  C15_17 
REMARK    4  A    between atoms: C15_17  and  C16_18 
REMARK       I    between atoms: C16_18  and  N2_20 
REMARK    5  A    between atoms: N2_20  and  C17_21 
REMARK    6  A    between atoms: C17_21  and  C18_22 
ROOT
ATOM      1  C7  <0> d           3.711  -0.707  -0.038  0.00  0.00     0.196 A 
ATOM      2  C8  <0> d           3.546  -2.072  -0.665  0.00  0.00     0.017 A 
ATOM      3  C9  <0> d           3.155  -2.485  -1.919  0.00  0.00     0.013 A 
ATOM      4  C10 <0> d           3.097  -3.836  -2.214  0.00  0.00     0.001 A 
ATOM      5  C11 <0> d           3.431  -4.766  -1.247  0.00  0.00     0.002 A 
ATOM      6  C12 <0> d           3.823  -4.355   0.010  0.00  0.00     0.030 A 
ATOM      7  C13 <0> d           3.885  -2.996   0.314  0.00  0.00     0.048 A 
ATOM      8  N1  <0> d           4.245  -2.341   1.492  0.00  0.00    -0.305 N 
ATOM      9  C14 <0> d           4.171  -1.004   1.374  0.00  0.00     0.269 A 
ATOM     10  O1  <0> d           4.426  -0.190   2.235  0.00  0.00    -0.269 OA
ENDROOT
BRANCH   8  11
ATOM     11  C15 <0> d           4.656  -3.031   2.718  0.00  0.00     0.235 C 
BRANCH  11  12
ATOM     12  C16 <0> d           6.149  -3.231   2.704  0.00  0.00     0.236 C 
ATOM     13  O2  <0> d           6.806  -2.837   1.764  0.00  0.00    -0.272 OA
ATOM     14  N2  <0> d           6.756  -3.849   3.738  0.00  0.00    -0.354 N 
ATOM     15  H12 <0> d           6.231  -4.164   4.490  0.00  0.00     0.162 HD
BRANCH  14  16
ATOM     16  C17 <0> d           8.208  -4.044   3.725  0.00  0.00     0.187 C 
BRANCH  16  17
ATOM     17  C18 <0> d           8.630  -4.753   4.985  0.00  0.00     0.070 A 
ATOM     18  O3  <0> d           8.985  -4.162   6.138  0.00  0.00    -0.325 OA
ATOM     19  C21 <0> d           9.296  -5.102   7.046  0.00  0.00     0.142 A 
ATOM     20  C20 <0> d           9.152  -6.311   6.473  0.00  0.00     0.027 A 
ATOM     21  C19 <0> d           8.723  -6.086   5.145  0.00  0.00     0.036 A 
ENDBRANCH  16  17
ENDBRANCH  14  16
ENDBRANCH  11  12
ENDBRANCH   8  11
BRANCH   1  22
ATOM     22  C4  <0> d           2.396   0.029  -0.020  0.00  0.00    -0.010 A 
ATOM     23  C3  <0> d           2.377   1.411  -0.013  0.00  0.00     0.011 A 
ATOM     24  C2  <0> d           1.171   2.086   0.002  0.00  0.00     0.001 A 
ATOM     25  C1  <0> d          -0.017   1.378   0.010  0.00  0.00     0.000 A 
ATOM     26  C6  <0> d           0.002  -0.004   0.002  0.00  0.00     0.001 A 
ATOM     27  C5  <0> d           1.208  -0.679  -0.012  0.00  0.00     0.011 A 
ENDBRANCH   1  22
BRANCH   1  28
ATOM     28  O4  <0> d           4.699   0.053  -0.737  0.00  0.00    -0.371 OA
ATOM     29  H18 <0> d           4.866   0.926  -0.356  0.00  0.00     0.212 HD
ENDBRANCH   1  28
TORSDOF 6
