REMARK  4 active torsions:
REMARK  status: ('A' for Active; 'I' for Inactive)
REMARK    1  A    between atoms: C3_3  and  C14_19 
REMARK    2  A    between atoms: N1_5  and  C5_7 
REMARK    3  A    between atoms: C8_10  and  C11_13 
REMARK       I    between atoms: C14_19  and  N5_21 
REMARK    4  A    between atoms: N5_21  and  C15_22 
ROOT
ATOM      1  C1  <0> d          -0.544   9.017   0.276  0.00  0.00     0.073 C 
ATOM      2  C2  <0> d          -1.150   8.609  -1.042  0.00  0.00     0.068 A 
ATOM      3  C3  <0> d          -1.723   7.352  -1.339  0.00  0.00     0.075 A 
ATOM      4  C4  <0> d          -2.150   7.397  -2.651  0.00  0.00     0.138 A 
ATOM      5  N1  <0> d          -1.860   8.622  -3.125  0.00  0.00    -0.244 N 
ATOM      6  N2  <0> d          -1.237   9.355  -2.109  0.00  0.00    -0.172 NA
ENDROOT
BRANCH   3   7
ATOM      7  C14 <0> d          -1.837   6.204  -0.420  0.00  0.00     0.255 C 
ATOM      8  O2  <0> d          -1.415   6.290   0.717  0.00  0.00    -0.268 OA
ATOM      9  N5  <0> d          -2.411   5.059  -0.841  0.00  0.00    -0.348 N 
ATOM     10  H13 <0> d          -2.793   4.981  -1.869  0.00  0.00     0.163 HD
BRANCH   9  11
ATOM     11  C15 <0> d          -2.525   3.919   0.072  0.00  0.00     0.118 C 
ATOM     12  C20 <0> d          -1.245   3.125   0.037  0.00  0.00    -0.029 A 
ATOM     13  C19 <0> d          -1.228   1.748   0.017  0.00  0.00    -0.050 A 
ATOM     14  C21 <0> d          -0.048   3.828   0.025  0.00  0.00     0.010 A 
ATOM     15  C18 <0> d          -2.487   0.921   0.005  0.00  0.00     0.039 C 
ATOM     16  C24 <0> d          -0.013   1.076   0.008  0.00  0.00     0.007 A 
ATOM     17  C17 <0> d          -3.683   1.759   0.454  0.00  0.00     0.007 C 
ATOM     18  C16 <0> d          -3.706   3.051  -0.372  0.00  0.00     0.030 C 
ATOM     19  C23 <0> d           1.176   1.776   0.000  0.00  0.00     0.001 A 
ATOM     20  C22 <0> d           1.158   3.158   0.008  0.00  0.00     0.001 A 
ENDBRANCH   9  11
ENDBRANCH   3   7
BRANCH   5  21
ATOM     21  C5  <0> d          -2.131   9.084  -4.419  0.00  0.00     0.058 A 
ATOM     22  C10 <0> d          -1.772  10.376  -4.784  0.00  0.00     0.032 A 
ATOM     23  C9  <0> d          -2.039  10.833  -6.057  0.00  0.00     0.018 A 
ATOM     24  C8  <0> d          -2.669   9.998  -6.978  0.00  0.00     0.014 A 
ATOM     25  C7  <0> d          -3.028   8.702  -6.610  0.00  0.00     0.018 A 
ATOM     26  C6  <0> d          -2.754   8.248  -5.338  0.00  0.00     0.032 A 
BRANCH  24  27
ATOM     27  C11 <0> d          -2.957  10.488  -8.349  0.00  0.00     0.189 A 
ATOM     28  N4  <0> d          -2.683  11.676  -8.823  0.00  0.00    -0.106 NA
ATOM     29  O1  <0> d          -3.043  11.757  -9.978  0.00  0.00    -0.196 OA
ATOM     30  C12 <0> d          -3.606  10.607 -10.364  0.00  0.00     0.169 A 
ATOM     31  N3  <0> d          -3.559   9.792  -9.340  0.00  0.00    -0.204 NA
ATOM     32  C13 <0> d          -4.186  10.306 -11.722  0.00  0.00     0.102 C 
ENDBRANCH  24  27
ENDBRANCH   5  21
TORSDOF 4
