REMARK  4 active torsions:
REMARK  status: ('A' for Active; 'I' for Inactive)
REMARK    1  A    between atoms: C2_2  and  C3_3 
REMARK    2  A    between atoms: C2_2  and  S1_15 
REMARK       I    between atoms: C3_3  and  N1_5 
REMARK       I    between atoms: N1_5  and  C4_6 
REMARK       I    between atoms: C4_6  and  N2_8 
REMARK    3  A    between atoms: N2_8  and  C5_9 
REMARK    4  A    between atoms: S1_15  and  C11_16 
ROOT
ATOM      1  C1  <0> d           6.656   0.858  -0.025  0.00  0.00     0.031 C 
ATOM      2  C2  <0> d           5.979   1.246   1.291  0.00  0.00     0.143 C 
ENDROOT
BRANCH   2   3
ATOM      3  C3  <0> d           4.565   0.725   1.301  0.00  0.00     0.239 C 
ATOM      4  O1  <0> d           4.300  -0.295   1.901  0.00  0.00    -0.272 OA
ATOM      5  N1  <0> d           3.596   1.392   0.645  0.00  0.00    -0.278 N 
ATOM      6  C4  <0> d           2.331   0.926   0.654  0.00  0.00     0.323 C 
ATOM      7  H5  <0> d           3.836   2.317   0.101  0.00  0.00     0.173 HD
ATOM      8  O2  <0> d           2.065  -0.097   1.255  0.00  0.00    -0.247 OA
ATOM      9  N2  <0> d           1.362   1.593  -0.002  0.00  0.00    -0.338 N 
ATOM     10  H6  <0> d           1.602   2.518  -0.546  0.00  0.00     0.164 HD
BRANCH   9  11
ATOM     11  C5  <0> d          -0.013   1.086   0.008  0.00  0.00     0.086 C 
ATOM     12  C10 <0> d          -0.753   1.593  -1.232  0.00  0.00     0.025 C 
ATOM     13  C9  <0> d          -2.188   1.063  -1.221  0.00  0.00     0.002 C 
ATOM     14  C8  <0> d          -2.904   1.556   0.038  0.00  0.00     0.000 C 
ATOM     15  C7  <0> d          -2.164   1.050   1.278  0.00  0.00     0.002 C 
ATOM     16  C6  <0> d          -0.729   1.579   1.267  0.00  0.00     0.025 C 
ENDBRANCH   9  11
ENDBRANCH   2   3
BRANCH   2  17
ATOM     17  S1  <0> d           6.897   0.529   2.676  0.00  0.00    -0.078 SA
BRANCH  17  18
ATOM     18  C11 <0> d           8.420   1.401   2.517  0.00  0.00     0.172 A 
ATOM     19  N4  <0> d           9.433   1.153   3.398  0.00  0.00    -0.297 N 
ATOM     20  C16 <0> d          10.610   1.798   3.308  0.00  0.00     0.262 A 
ATOM     21  C17 <0> d           9.234   0.165   4.462  0.00  0.00     0.161 C 
ATOM     22  C13 <0> d          10.799   2.761   2.267  0.00  0.00     0.068 A 
ATOM     23  O3  <0> d          11.505   1.564   4.102  0.00  0.00    -0.267 OA
ATOM     24  C12 <0> d           9.703   2.954   1.405  0.00  0.00     0.116 A 
ATOM     25  C14 <0> d          11.964   3.576   1.968  0.00  0.00     0.027 A 
ATOM     26  N3  <0> d           8.569   2.279   1.546  0.00  0.00    -0.216 NA
ATOM     27  S2  <0> d          10.283   4.187   0.269  0.00  0.00    -0.081 SA
ATOM     28  C15 <0> d          11.921   4.425   0.931  0.00  0.00     0.053 A 
ENDBRANCH  17  18
ENDBRANCH   2  17
TORSDOF 4
