REMARK  5 active torsions:
REMARK  status: ('A' for Active; 'I' for Inactive)
REMARK    1  A    between atoms: C2_2  and  C3_3 
REMARK    2  A    between atoms: C2_2  and  C10_16 
REMARK    3  A    between atoms: C3_3  and  N1_4 
REMARK    4  A    between atoms: N2_7  and  S1_10 
REMARK    5  A    between atoms: S1_10  and  N3_13 
ROOT
ATOM      1  N1  <0> d           2.151  -0.103   1.171  0.00  0.00     0.092 N 
ATOM      2  C4  <0> d           2.836  -0.764   0.052  0.00  0.00     0.293 C 
ATOM      3  C5  <0> d           4.244  -0.179  -0.098  0.00  0.00     0.167 C 
ATOM      4  N2  <0> d           4.932  -0.279   1.198  0.00  0.00    -0.291 N 
ATOM      5  C6  <0> d           4.247   0.240   2.392  0.00  0.00     0.167 C 
ATOM      6  C7  <0> d           2.838  -0.361   2.444  0.00  0.00     0.293 C 
ENDROOT
BRANCH   1   7
ATOM      7  C3  <0> d           0.742  -0.511   1.242  0.00  0.00     0.283 C 
BRANCH   7   8
ATOM      8  C2  <0> d           0.002  -0.004   0.002  0.00  0.00     0.071 C 
ATOM      9  C1  <0> d          -0.019   1.526   0.010  0.00  0.00     0.019 C 
BRANCH   8  10
ATOM     10  C10 <0> d          -1.412  -0.526   0.013  0.00  0.00     0.076 C 
ATOM     11  S2  <0> d          -1.986  -1.254   1.316  0.00  0.00    -0.065 SA
ATOM     12  N4  <0> d          -2.193  -0.379  -1.076  0.00  0.00    -0.393 N 
ATOM     13  H21 <0> d          -1.845   0.063  -1.866  0.00  0.00     0.156 HD
ATOM     14  H22 <0> d          -3.103  -0.714  -1.069  0.00  0.00     0.156 HD
ENDBRANCH   8  10
ENDBRANCH   7   8
ENDBRANCH   1   7
BRANCH   4  15
ATOM     15  S1  <0> d           6.439  -0.957   1.311  0.00  0.00     0.318 S 
ATOM     16  O1  <0> d           6.581  -1.411   2.650  0.00  0.00    -0.183 OA
ATOM     17  O2  <0> d           6.579  -1.823   0.193  0.00  0.00    -0.183 OA
BRANCH  15  18
ATOM     18  N3  <0> d           7.541   0.262   1.105  0.00  0.00    -0.303 N 
ATOM     19  C8  <0> d           8.030   1.012   2.265  0.00  0.00     0.163 C 
ATOM     20  C9  <0> d           8.027   0.591  -0.237  0.00  0.00     0.163 C 
ENDBRANCH  15  18
ENDBRANCH   4  15
TORSDOF 5
