REMARK  8 active torsions:
REMARK  status: ('A' for Active; 'I' for Inactive)
REMARK    1  A    between atoms: N1_2  and  C2_3 
REMARK    2  A    between atoms: N1_2  and  C15_21 
REMARK    3  A    between atoms: C2_3  and  C3_4 
REMARK    4  A    between atoms: C3_4  and  C4_5 
REMARK    5  A    between atoms: C4_5  and  N2_6 
REMARK       I    between atoms: N2_6  and  C5_7 
REMARK       I    between atoms: C5_7  and  N3_9 
REMARK    6  A    between atoms: N3_9  and  C6_10 
REMARK    7  A    between atoms: C10_14  and  C12_16 
REMARK    8  A    between atoms: C15_21  and  C16_22 
ROOT
ATOM      1  N2  <0> d          -0.079  -0.234   4.890  0.00  0.00    -0.343 N 
ATOM      2  C5  <0> d           0.382  -0.585   6.107  0.00  0.00     0.320 C 
ATOM      3  O1  <0> d           1.420  -1.211   6.207  0.00  0.00    -0.247 OA
ATOM      4  N3  <0> d          -0.307  -0.242   7.213  0.00  0.00    -0.309 N 
ATOM      5  H10 <0> d          -0.907   0.265   4.811  0.00  0.00     0.164 HD
ATOM      6  H11 <0> d          -1.098   0.314   7.139  0.00  0.00     0.170 HD
ENDROOT
BRANCH   1   7
ATOM      7  C4  <0> d           0.670  -0.607   3.687  0.00  0.00     0.126 C 
BRANCH   7   8
ATOM      8  C3  <0> d          -0.065  -0.091   2.449  0.00  0.00     0.047 C 
BRANCH   8   9
ATOM      9  C2  <0> d           0.718  -0.481   1.193  0.00  0.00     0.236 C 
BRANCH   9  10
ATOM     10  N1  <0> d           0.012   0.015   0.003  0.00  0.00    -0.071 N 
ATOM     11  C1  <0> d           0.003   1.484   0.015  0.00  0.00     0.270 C 
ATOM     12  H25 <0> d          -0.937  -0.328   0.008  0.00  0.00     0.279 HD
BRANCH  10  13
ATOM     13  C15 <0> d           0.698  -0.461  -1.206  0.00  0.00     0.273 C 
BRANCH  13  14
ATOM     14  C16 <0> d          -0.093  -0.057  -2.424  0.00  0.00    -0.033 A 
ATOM     15  C21 <0> d           0.156   1.156  -3.039  0.00  0.00     0.009 A 
ATOM     16  C20 <0> d          -0.567   1.525  -4.158  0.00  0.00     0.001 A 
ATOM     17  C19 <0> d          -1.545   0.685  -4.657  0.00  0.00     0.000 A 
ATOM     18  C18 <0> d          -1.798  -0.526  -4.038  0.00  0.00     0.001 A 
ATOM     19  C17 <0> d          -1.072  -0.896  -2.922  0.00  0.00     0.009 A 
ENDBRANCH  13  14
ENDBRANCH  10  13
ENDBRANCH   9  10
ENDBRANCH   8   9
ENDBRANCH   7   8
ENDBRANCH   1   7
BRANCH   4  20
ATOM     20  C6  <0> d           0.119  -0.689   8.470  0.00  0.00     0.037 A 
ATOM     21  C11 <0> d           1.473  -0.814   8.738  0.00  0.00     0.043 A 
ATOM     22  C10 <0> d           1.893  -1.253   9.993  0.00  0.00     0.001 A 
ATOM     23  C9  <0> d           0.947  -1.575  10.967  0.00  0.00     0.014 A 
ATOM     24  C8  <0> d          -0.400  -1.453  10.688  0.00  0.00     0.003 A 
ATOM     25  C7  <0> d          -0.815  -1.012   9.446  0.00  0.00     0.029 A 
BRANCH  22  26
ATOM     26  C12 <0> d           3.336  -1.383  10.289  0.00  0.00     0.102 A 
ATOM     27  O2  <0> d           4.358  -1.110   9.449  0.00  0.00    -0.304 OA
ATOM     28  C14 <0> d           5.501  -1.356  10.104  0.00  0.00     0.233 A 
ATOM     29  N4  <0> d           5.220  -1.777  11.305  0.00  0.00    -0.354 N 
ATOM     30  C13 <0> d           3.887  -1.806  11.455  0.00  0.00     0.127 A 
ATOM     31  H26 <0> d           5.869  -2.027  11.981  0.00  0.00     0.166 HD
ENDBRANCH  22  26
ENDBRANCH   4  20
TORSDOF 8
