REMARK  4 active torsions:
REMARK  status: ('A' for Active; 'I' for Inactive)
REMARK    1  A    between atoms: C7_10  and  S1_12 
REMARK    2  A    between atoms: S1_12  and  C8_13 
REMARK    3  A    between atoms: C8_13  and  C9_14 
REMARK       I    between atoms: C9_14  and  N3_16 
REMARK    4  A    between atoms: N3_16  and  C10_17 
ROOT
ATOM      1  C10 <0> d           7.449  -0.743   7.289  0.00  0.00     0.173 C 
ATOM      2  C11 <0> d           8.853  -0.136   7.051  0.00  0.00     0.155 C 
ATOM      3  C12 <0> d           9.025   1.171   7.783  0.00  0.00    -0.047 C 
ATOM      4  C13 <0> d           8.190   1.431   8.782  0.00  0.00    -0.016 C 
ATOM      5  S2  <0> d           7.068   0.056   8.905  0.00  0.00    -0.107 SA
ATOM      6  C14 <0> d           8.180   2.655   9.656  0.00  0.00     0.046 C 
ATOM      7  C15 <0> d           9.503   3.407   9.469  0.00  0.00     0.005 C 
ATOM      8  C16 <0> d           9.780   3.537   7.968  0.00  0.00     0.005 C 
ATOM      9  C17 <0> d          10.119   2.163   7.392  0.00  0.00     0.037 C 
ATOM     10  C18 <0> d           9.039   0.094   5.609  0.00  0.00     0.071 C 
ATOM     11  N4  <0> d           9.182   0.272   4.497  0.00  0.00    -0.196 NA
ENDROOT
BRANCH   1  12
ATOM     12  N3  <0> d           6.503  -0.332   6.250  0.00  0.00    -0.345 N 
ATOM     13  C9  <0> d           5.618  -1.221   5.755  0.00  0.00     0.228 C 
ATOM     14  O2  <0> d           5.606  -2.360   6.170  0.00  0.00    -0.273 OA
ATOM     15  H12 <0> d           6.512   0.579   5.917  0.00  0.00     0.163 HD
BRANCH  13  16
ATOM     16  C8  <0> d           4.644  -0.799   4.685  0.00  0.00     0.185 C 
BRANCH  16  17
ATOM     17  S1  <0> d           3.596  -2.208   4.231  0.00  0.00    -0.083 SA
BRANCH  17  18
ATOM     18  C7  <0> d           2.527  -1.561   2.989  0.00  0.00     0.169 A 
ATOM     19  N1  <0> d           1.593  -2.372   2.418  0.00  0.00    -0.302 N 
ATOM     20  C6  <0> d           0.779  -1.878   1.464  0.00  0.00     0.255 A 
ATOM     21  H1  <0> d           1.515  -3.298   2.696  0.00  0.00     0.171 HD
ATOM     22  C5  <0> d           0.913  -0.527   1.079  0.00  0.00     0.035 A 
ATOM     23  O1  <0> d          -0.062  -2.590   0.940  0.00  0.00    -0.268 OA
ATOM     24  C4  <0> d           1.857   0.238   1.686  0.00  0.00     0.049 A 
ATOM     25  C19 <0> d           0.002  -0.004   0.002  0.00  0.00     0.046 C 
ATOM     26  C3  <0> d           2.066   1.691   1.347  0.00  0.00     0.060 C 
ATOM     27  N2  <0> d           2.642  -0.302   2.625  0.00  0.00    -0.228 NA
ATOM     28  C2  <0> d           1.430   2.025  -0.001  0.00  0.00     0.006 C 
ATOM     29  C1  <0> d          -0.019   1.524   0.010  0.00  0.00     0.005 C 
ENDBRANCH  17  18
ENDBRANCH  16  17
ENDBRANCH  13  16
ENDBRANCH   1  12
TORSDOF 4
