REMARK  3 active torsions:
REMARK  status: ('A' for Active; 'I' for Inactive)
REMARK    1  A    between atoms: C9_11  and  C11_14 
REMARK       I    between atoms: C11_14  and  N2_16 
REMARK    2  A    between atoms: N2_16  and  C12_17 
REMARK    3  A    between atoms: C13_18  and  C20_26 
REMARK       I    between atoms: C20_26  and  N3_28 
ROOT
ATOM      1  C11 <0> d           2.194  -4.685   0.833  0.00  0.00     0.267 C 
ATOM      2  O3  <0> d           2.938  -4.569   1.784  0.00  0.00    -0.269 OA
ATOM      3  N2  <0> d           2.699  -4.724  -0.416  0.00  0.00    -0.317 N 
ATOM      4  H11 <0> d           2.105  -4.818  -1.177  0.00  0.00     0.169 HD
ENDROOT
BRANCH   1   5
ATOM      5  C9  <0> d           0.706  -4.787   1.048  0.00  0.00     0.225 C 
ATOM      6  C8  <0> d           0.342  -4.129   2.355  0.00  0.00     0.267 C 
ATOM      7  N1  <0> d           0.086  -2.805   2.389  0.00  0.00    -0.322 N 
ATOM      8  O1  <0> d           0.279  -4.788   3.371  0.00  0.00    -0.269 OA
ATOM      9  C6  <0> d           0.038  -2.085   1.188  0.00  0.00     0.069 A 
ATOM     10  H7  <0> d          -0.063  -2.356   3.236  0.00  0.00     0.169 HD
ATOM     11  C5  <0> d           0.031  -2.773  -0.024  0.00  0.00     0.098 A 
ATOM     12  C7  <0> d           0.023  -0.700   1.197  0.00  0.00     0.039 A 
ATOM     13  C4  <0> d           0.019  -2.070  -1.216  0.00  0.00     0.040 A 
ATOM     14  O2  <0> d           0.025  -4.133  -0.026  0.00  0.00    -0.319 OA
ATOM     15  C3  <0> d           0.006  -0.687  -1.200  0.00  0.00     0.009 A 
ATOM     16  C2  <0> d           0.002  -0.004   0.002  0.00  0.00    -0.060 A 
ATOM     17  C1  <0> d          -0.018   1.503   0.010  0.00  0.00     0.048 C 
ATOM     18  C10 <0> d           0.298  -6.261   1.088  0.00  0.00     0.068 C 
ENDBRANCH   1   5
BRANCH   3  19
ATOM     19  C12 <0> d           4.069  -4.631  -0.613  0.00  0.00     0.093 A 
ATOM     20  S1  <0> d           5.270  -4.465   0.548  0.00  0.00    -0.075 SA
ATOM     21  C15 <0> d           6.697  -4.425  -0.497  0.00  0.00    -0.008 A 
ATOM     22  C14 <0> d           6.206  -4.533  -1.751  0.00  0.00    -0.026 A 
ATOM     23  C16 <0> d           8.135  -4.294  -0.103  0.00  0.00     0.047 C 
ATOM     24  C13 <0> d           4.759  -4.647  -1.815  0.00  0.00     0.073 A 
ATOM     25  C19 <0> d           7.126  -4.531  -2.963  0.00  0.00     0.041 C 
ATOM     26  C18 <0> d           8.480  -3.951  -2.550  0.00  0.00     0.005 C 
ATOM     27  C17 <0> d           9.003  -4.681  -1.309  0.00  0.00     0.005 C 
BRANCH  24  28
ATOM     28  C20 <0> d           4.059  -4.774  -3.097  0.00  0.00     0.254 C 
ATOM     29  O4  <0> d           3.689  -3.778  -3.689  0.00  0.00    -0.268 OA
ATOM     30  N3  <0> d           3.826  -5.995  -3.619  0.00  0.00    -0.361 N 
ATOM     31  C21 <0> d           3.126  -6.122  -4.900  0.00  0.00     0.149 C 
ATOM     32  H20 <0> d           4.121  -6.789  -3.147  0.00  0.00     0.162 HD
ENDBRANCH  24  28
ENDBRANCH   3  19
TORSDOF 3
