REMARK  4 active torsions:
REMARK  status: ('A' for Active; 'I' for Inactive)
REMARK    1  A    between atoms: C4_4  and  S2_13 
REMARK    2  A    between atoms: C6_6  and  S1_8 
REMARK    3  A    between atoms: S1_8  and  N1_11 
REMARK    4  A    between atoms: S2_13  and  C9_16 
ROOT
ATOM      1  C1  <0> d          -0.637   7.728   0.502  0.00  0.00     0.048 C 
ATOM      2  C2  <0> d          -0.652   6.316   1.028  0.00  0.00    -0.059 A 
ATOM      3  C3  <0> d          -0.458   6.078   2.376  0.00  0.00     0.031 A 
ATOM      4  C4  <0> d          -0.472   4.782   2.858  0.00  0.00     0.072 A 
ATOM      5  C5  <0> d          -0.685   3.725   1.993  0.00  0.00    -0.017 A 
ATOM      6  C6  <0> d          -0.875   3.963   0.645  0.00  0.00     0.087 A 
ATOM      7  C7  <0> d          -0.861   5.259   0.163  0.00  0.00     0.032 A 
ATOM      8  C8  <0> d          -0.706   2.313   2.519  0.00  0.00     0.051 C 
ENDROOT
BRANCH   4   9
ATOM      9  S2  <0> d          -0.225   4.479   4.576  0.00  0.00     0.207 S 
ATOM     10  O3  <0> d          -0.001   5.744   5.184  0.00  0.00    -0.217 OA
ATOM     11  O4  <0> d          -1.269   3.609   4.990  0.00  0.00    -0.217 OA
BRANCH   9  12
ATOM     12  C9  <0> d           1.278   3.572   4.734  0.00  0.00     0.064 A 
ATOM     13  C14 <0> d           2.489   4.239   4.746  0.00  0.00     0.025 A 
ATOM     14  C13 <0> d           3.668   3.529   4.870  0.00  0.00     0.025 A 
ATOM     15  C12 <0> d           3.636   2.150   4.981  0.00  0.00     0.034 A 
ATOM     16  C11 <0> d           2.424   1.483   4.968  0.00  0.00     0.025 A 
ATOM     17 Cl1  <0> d           5.117   1.257   5.135  0.00  0.00    -0.084 Cl
ATOM     18  C10 <0> d           1.245   2.195   4.850  0.00  0.00     0.025 A 
ENDBRANCH   9  12
ENDBRANCH   4   9
BRANCH   6  19
ATOM     19  S1  <0> d          -1.141   2.615  -0.459  0.00  0.00     0.257 S 
ATOM     20  O1  <0> d          -1.279   3.175  -1.757  0.00  0.00    -0.201 OA
ATOM     21  O2  <0> d          -2.145   1.800   0.131  0.00  0.00    -0.201 OA
BRANCH  19  22
ATOM     22  N1  <0> d           0.249   1.715  -0.476  0.00  0.00    -0.324 N 
ATOM     23  H6  <0> d           0.206   0.760  -0.637  0.00  0.00     0.169 HD
ATOM     24  H7  <0> d           1.107   2.144  -0.329  0.00  0.00     0.169 HD
ENDBRANCH  19  22
ENDBRANCH   6  19
TORSDOF 4
