REMARK  5 active torsions:
REMARK  status: ('A' for Active; 'I' for Inactive)
REMARK    1  A    between atoms: C2_2  and  N1_3 
REMARK    2  A    between atoms: C6_9  and  C7_10 
REMARK    3  A    between atoms: C7_10  and  C8_11 
REMARK       I    between atoms: C8_11  and  N3_13 
REMARK    4  A    between atoms: N3_13  and  C9_14 
REMARK    5  A    between atoms: C9_14  and  C10_15 
ROOT
ATOM      1  N1  <0> d          -3.232  -2.428   1.066  0.00  0.00    -0.057 N 
ATOM      2  C3  <0> d          -4.429  -3.253   1.299  0.00  0.00     0.255 C 
ATOM      3  C4  <0> d          -3.993  -4.706   1.498  0.00  0.00     0.150 C 
ATOM      4  N2  <0> d          -3.098  -5.113   0.418  0.00  0.00    -0.358 N 
ATOM      5  C5  <0> d          -2.464  -4.238  -0.369  0.00  0.00     0.249 C 
ATOM      6  O1  <0> d          -1.714  -4.662  -1.223  0.00  0.00    -0.271 OA
ATOM      7  C6  <0> d          -2.640  -2.751  -0.239  0.00  0.00     0.287 C 
ATOM      8  H11 <0> d          -2.923  -6.181   0.223  0.00  0.00     0.162 HD
ATOM      9  H20 <0> d          -2.493  -2.654   1.849  0.00  0.00     0.281 HD
ENDROOT
BRANCH   7  10
ATOM     10  C7  <0> d          -1.277  -2.066  -0.362  0.00  0.00     0.145 C 
BRANCH  10  11
ATOM     11  C8  <0> d          -0.387  -2.511   0.770  0.00  0.00     0.220 C 
ATOM     12  O2  <0> d          -0.831  -3.220   1.648  0.00  0.00    -0.274 OA
ATOM     13  N3  <0> d           0.903  -2.123   0.805  0.00  0.00    -0.357 N 
ATOM     14  H14 <0> d           1.306  -1.481   0.008  0.00  0.00     0.162 HD
BRANCH  13  15
ATOM     15  C9  <0> d           1.769  -2.556   1.905  0.00  0.00     0.161 C 
BRANCH  15  16
ATOM     16  C10 <0> d           3.151  -1.989   1.710  0.00  0.00    -0.034 A 
ATOM     17  C13 <0> d           3.480  -0.782   2.232  0.00  0.00     0.058 A 
ATOM     18  S1  <0> d           5.179  -0.606   1.715  0.00  0.00    -0.113 SA
ATOM     19  C12 <0> d           5.337  -2.153   0.838  0.00  0.00     0.050 A 
ATOM     20  C11 <0> d           4.105  -2.694   1.000  0.00  0.00     0.016 A 
ENDBRANCH  15  16
ENDBRANCH  13  15
ENDBRANCH  10  11
ENDBRANCH   7  10
BRANCH   1  21
ATOM     21  C2  <0> d          -3.553  -0.998   1.159  0.00  0.00     0.231 C 
ATOM     22  C1  <0> d          -4.653  -0.655   0.152  0.00  0.00     0.034 C 
ENDBRANCH   1  21
TORSDOF 5
