REMARK  4 active torsions:
REMARK  status: ('A' for Active; 'I' for Inactive)
REMARK    1  A    between atoms: C6_7  and  C9_10 
REMARK    2  A    between atoms: N2_11  and  N3_12 
REMARK       I    between atoms: N3_12  and  C10_13 
REMARK    3  A    between atoms: C10_13  and  C11_15 
REMARK    4  A    between atoms: C12_18  and  C14_20 
ROOT
ATOM      1  N3  <0> d           0.256  -5.438  -0.031  0.00  0.00    -0.242 N 
ATOM      2  C10 <0> d           0.734  -6.698  -0.043  0.00  0.00     0.287 C 
ATOM      3  O1  <0> d           1.935  -6.893  -0.056  0.00  0.00    -0.264 OA
ATOM      4  H9  <0> d          -0.701  -5.282  -0.020  0.00  0.00     0.192 HD
ENDROOT
BRANCH   2   5
ATOM      5  C11 <0> d          -0.191  -7.830  -0.040  0.00  0.00     0.125 A 
ATOM      6  C13 <0> d           0.212  -9.287  -0.052  0.00  0.00     0.098 A 
ATOM      7  C12 <0> d          -1.130 -10.045  -0.041  0.00  0.00     0.142 A 
ATOM      8  N5  <0> d          -2.135  -8.971  -0.032  0.00  0.00    -0.304 N 
ATOM      9  N4  <0> d          -1.482  -7.740  -0.032  0.00  0.00    -0.178 NA
ATOM     10  H10 <0> d          -3.097  -9.099  -0.027  0.00  0.00     0.183 HD
BRANCH   7  11
ATOM     11  C14 <0> d          -1.269 -10.891  -1.280  0.00  0.00    -0.010 A 
ATOM     12  C19 <0> d          -0.798 -12.192  -1.286  0.00  0.00     0.042 A 
ATOM     13  C18 <0> d          -0.931 -12.971  -2.421  0.00  0.00     0.026 A 
ATOM     14 Cl1  <0> d          -0.046 -12.849   0.135  0.00  0.00    -0.084 Cl
ATOM     15  C17 <0> d          -1.524 -12.446  -3.554  0.00  0.00     0.025 A 
ATOM     16  C16 <0> d          -1.990 -11.143  -3.550  0.00  0.00     0.034 A 
ATOM     17  C15 <0> d          -1.862 -10.366  -2.412  0.00  0.00     0.034 A 
ATOM     18 Cl2  <0> d          -2.736 -10.483  -4.972  0.00  0.00    -0.084 Cl
ENDBRANCH   7  11
ENDBRANCH   2   5
BRANCH   1  19
ATOM     19  N2  <0> d           1.142  -4.353  -0.034  0.00  0.00    -0.184 NA
ATOM     20  C9  <0> d           0.678  -3.127  -0.022  0.00  0.00     0.148 C 
BRANCH  20  21
ATOM     21  C6  <0> d           1.564  -2.042  -0.025  0.00  0.00    -0.009 A 
ATOM     22  C5  <0> d           3.076  -2.096  -0.041  0.00  0.00     0.161 A 
ATOM     23  N1  <0> d           3.531  -0.703  -0.037  0.00  0.00    -0.385 N 
ATOM     24  C4  <0> d           2.485   0.096  -0.022  0.00  0.00     0.039 A 
ATOM     25  H16 <0> d           4.457  -0.415  -0.045  0.00  0.00     0.160 HD
ATOM     26  C3  <0> d           2.384   1.513  -0.013  0.00  0.00     0.030 A 
ATOM     27  C7  <0> d           1.238  -0.688  -0.013  0.00  0.00    -0.000 A 
ATOM     28  C2  <0> d           1.164   2.101   0.002  0.00  0.00     0.002 A 
ATOM     29  C1  <0> d          -0.016   1.353   0.009  0.00  0.00     0.001 A 
ATOM     30  C8  <0> d           0.002  -0.004   0.002  0.00  0.00     0.014 A 
ENDBRANCH  20  21
ENDBRANCH   1  19
TORSDOF 4
