REMARK  4 active torsions:
REMARK  status: ('A' for Active; 'I' for Inactive)
REMARK    1  A    between atoms: C3_3  and  C11_14 
REMARK    2  A    between atoms: N1_5  and  C5_7 
REMARK       I    between atoms: C11_14  and  N3_16 
REMARK    3  A    between atoms: N3_16  and  N4_17 
REMARK       I    between atoms: N4_17  and  C12_18 
REMARK    4  A    between atoms: C12_18  and  C13_20 
ROOT
ATOM      1  C11 <0> d           1.654   7.478   0.407  0.00  0.00     0.275 C 
ATOM      2  O1  <0> d           1.383   7.928   1.504  0.00  0.00    -0.266 OA
ATOM      3  N3  <0> d           2.739   7.926  -0.256  0.00  0.00    -0.263 N 
ATOM      4  H9  <0> d           2.955   7.567  -1.131  0.00  0.00     0.190 HD
ENDROOT
BRANCH   1   5
ATOM      5  C3  <0> d           0.796   6.445  -0.198  0.00  0.00     0.100 A 
ATOM      6  C2  <0> d          -0.325   6.666  -1.031  0.00  0.00     0.070 A 
ATOM      7  C1  <0> d          -0.857   8.009  -1.460  0.00  0.00     0.073 C 
ATOM      8  N2  <0> d          -0.819   5.505  -1.363  0.00  0.00    -0.170 NA
ATOM      9  N1  <0> d          -0.051   4.498  -0.769  0.00  0.00    -0.221 N 
ATOM     10  C4  <0> d           0.932   5.077  -0.054  0.00  0.00     0.146 A 
ATOM     11 Cl1  <0> d           2.148   4.256   0.875  0.00  0.00    -0.061 Cl
BRANCH   9  12
ATOM     12  C5  <0> d          -0.271   3.119  -0.893  0.00  0.00     0.060 A 
ATOM     13  C10 <0> d           0.806   2.243  -0.930  0.00  0.00     0.031 A 
ATOM     14  C9  <0> d           0.585   0.885  -1.054  0.00  0.00     0.002 A 
ATOM     15  C8  <0> d          -0.706   0.398  -1.138  0.00  0.00     0.000 A 
ATOM     16  C7  <0> d          -1.780   1.268  -1.100  0.00  0.00     0.002 A 
ATOM     17  C6  <0> d          -1.566   2.627  -0.977  0.00  0.00     0.031 A 
ENDBRANCH   9  12
ENDBRANCH   1   5
BRANCH   3  18
ATOM     18  N4  <0> d           3.555   8.909   0.320  0.00  0.00    -0.262 N 
ATOM     19  C12 <0> d           4.640   9.356  -0.343  0.00  0.00     0.286 C 
ATOM     20  O2  <0> d           4.969   8.836  -1.393  0.00  0.00    -0.264 OA
ATOM     21  H10 <0> d           3.339   9.267   1.195  0.00  0.00     0.190 HD
BRANCH  19  22
ATOM     22  C13 <0> d           5.423  10.470   0.201  0.00  0.00     0.105 A 
ATOM     23  N5  <0> d           6.490  11.090  -0.410  0.00  0.00    -0.355 N 
ATOM     24  C16 <0> d           6.947  12.071   0.406  0.00  0.00     0.110 A 
ATOM     25  C17 <0> d           7.039  10.746  -1.724  0.00  0.00     0.156 C 
ATOM     26  C15 <0> d           6.192  12.093   1.531  0.00  0.00     0.028 A 
ATOM     27  C14 <0> d           5.222  11.091   1.415  0.00  0.00     0.056 A 
ATOM     28 Br1  <0> d           6.408  13.271   2.994  0.00  0.00    -0.050 Br
ENDBRANCH  19  22
ENDBRANCH   3  18
TORSDOF 4
