REMARK  2 active torsions:
REMARK  status: ('A' for Active; 'I' for Inactive)
REMARK    1  A    between atoms: C3_5  and  C5_8 
REMARK    2  A    between atoms: C5_8  and  N4_15 
ROOT
ATOM      1  C5  <0> d           0.022  -3.311   1.461  0.00  0.00     0.185 C 
ATOM      2  C6  <0> d          -1.195  -3.565   2.345  0.00  0.00     0.047 C 
ATOM      3  C7  <0> d          -1.187  -5.003   2.861  0.00  0.00     0.003 C 
ATOM      4  C8  <0> d          -1.267  -5.959   1.674  0.00  0.00     0.004 C 
ATOM      5  C9  <0> d          -0.076  -5.769   0.745  0.00  0.00    -0.016 C 
ATOM      6  C10 <0> d           0.126  -4.324   0.333  0.00  0.00     0.051 C 
ATOM      7  C11 <0> d           1.190  -6.360   1.365  0.00  0.00     0.010 C 
ENDROOT
BRANCH   1   8
ATOM      8  C3  <0> d          -0.126  -1.929   0.847  0.00  0.00     0.166 A 
ATOM      9  N2  <0> d          -1.185  -1.169   0.900  0.00  0.00    -0.132 NA
ATOM     10  N1  <0> d          -0.960  -0.068   0.274  0.00  0.00    -0.135 NA
ATOM     11  C2  <0> d           0.254  -0.077  -0.207  0.00  0.00     0.126 A 
ATOM     12  C1  <0> d           0.906   1.023  -1.004  0.00  0.00     0.093 C 
ATOM     13  N3  <0> d           0.816  -1.260   0.139  0.00  0.00    -0.323 N 
ATOM     14  C4  <0> d           2.168  -1.721  -0.185  0.00  0.00     0.159 C 
ENDBRANCH   1   8
BRANCH   1  15
ATOM     15  N4  <0> d           1.244  -3.305   2.279  0.00  0.00    -0.063 N 
ATOM     16  H19 <0> d           1.210  -2.533   2.927  0.00  0.00     0.275 HD
ATOM     17  H20 <0> d           1.310  -4.172   2.791  0.00  0.00     0.275 HD
ATOM     18  H21 <0> d           2.049  -3.207   1.679  0.00  0.00     0.275 HD
ENDBRANCH   1  15
TORSDOF 2
