REMARK  5 active torsions:
REMARK  status: ('A' for Active; 'I' for Inactive)
REMARK    1  A    between atoms: C6_6  and  C8_8 
REMARK       I    between atoms: C8_8  and  N1_10 
REMARK    2  A    between atoms: N1_10  and  C9_11 
REMARK    3  A    between atoms: C16_19  and  C17_20 
REMARK       I    between atoms: C17_20  and  N3_22 
REMARK    4  A    between atoms: N3_22  and  C18_23 
REMARK    5  A    between atoms: C18_23  and  C19_24 
ROOT
ATOM      1  C9  <0> d           0.186  -4.883   3.611  0.00  0.00     0.057 A 
ATOM      2  C10 <0> d           0.194  -4.360   4.894  0.00  0.00     0.016 A 
ATOM      3  C11 <0> d           0.093  -3.037   5.386  0.00  0.00     0.022 A 
ATOM      4  C12 <0> d           0.132  -2.813   6.723  0.00  0.00    -0.061 A 
ATOM      5  C13 <0> d           0.271  -3.860   7.638  0.00  0.00     0.009 A 
ATOM      6  C14 <0> d           0.373  -5.151   7.238  0.00  0.00     0.030 A 
ATOM      7  C15 <0> d           0.341  -5.466   5.855  0.00  0.00     0.041 A 
ATOM      8  N2  <0> d           0.420  -6.619   5.221  0.00  0.00    -0.371 N 
ATOM      9  C16 <0> d           0.327  -6.379   3.777  0.00  0.00     0.225 A 
ATOM     10  C22 <0> d           0.024  -1.400   7.235  0.00  0.00     0.048 C 
ATOM     11  H26 <0> d           0.520  -7.487   5.642  0.00  0.00     0.161 HD
ENDROOT
BRANCH   1  12
ATOM     12  N1  <0> d           0.069  -4.193   2.444  0.00  0.00    -0.323 N 
ATOM     13  C8  <0> d           0.561  -2.942   2.348  0.00  0.00     0.256 C 
ATOM     14  O1  <0> d           1.079  -2.417   3.313  0.00  0.00    -0.267 OA
ATOM     15  H9  <0> d          -0.369  -4.602   1.681  0.00  0.00     0.169 HD
BRANCH  13  16
ATOM     16  C6  <0> d           0.470  -2.209   1.068  0.00  0.00     0.032 A 
ATOM     17  C5  <0> d          -0.125  -2.808  -0.043  0.00  0.00     0.017 A 
ATOM     18  C4  <0> d          -0.207  -2.118  -1.235  0.00  0.00     0.002 A 
ATOM     19  C3  <0> d           0.299  -0.834  -1.330  0.00  0.00     0.007 A 
ATOM     20  C2  <0> d           0.890  -0.233  -0.232  0.00  0.00    -0.061 A 
ATOM     21  C1  <0> d           1.438   1.166  -0.344  0.00  0.00     0.048 C 
ATOM     22  C7  <0> d           0.983  -0.914   0.964  0.00  0.00     0.023 A 
ENDBRANCH  13  16
ENDBRANCH   1  12
BRANCH   9  23
ATOM     23  C17 <0> d          -0.879  -7.081   3.208  0.00  0.00     0.246 C 
ATOM     24  O2  <0> d          -1.760  -7.467   3.946  0.00  0.00    -0.271 OA
ATOM     25  N3  <0> d          -0.978  -7.280   1.879  0.00  0.00    -0.359 N 
ATOM     26  H13 <0> d          -0.273  -6.972   1.288  0.00  0.00     0.162 HD
BRANCH  25  27
ATOM     27  C18 <0> d          -2.150  -7.962   1.325  0.00  0.00     0.126 C 
BRANCH  27  28
ATOM     28  C19 <0> d          -2.014  -8.058  -0.195  0.00  0.00    -0.005 C 
ATOM     29  C20 <0> d          -0.823  -8.952  -0.546  0.00  0.00     0.011 C 
ATOM     30  C21 <0> d          -3.293  -8.657  -0.785  0.00  0.00     0.011 C 
ENDBRANCH  27  28
ENDBRANCH  25  27
ENDBRANCH   9  23
TORSDOF 5
