REMARK  2 active torsions:
REMARK  status: ('A' for Active; 'I' for Inactive)
REMARK    1  A    between atoms: S1_2  and  C2_5 
REMARK    2  A    between atoms: C6_13  and  C7_14 
ROOT
ATOM      1  C2  <0> d           1.047  -0.733  -1.845  0.00  0.00     0.242 A 
ATOM      2  N1  <0> d           2.232  -1.247  -1.972  0.00  0.00    -0.178 NA
ATOM      3  S2  <0> d           2.173  -2.065  -3.433  0.00  0.00     0.053 SA
ATOM      4  C3  <0> d           0.617  -1.685  -3.894  0.00  0.00     0.203 A 
ATOM      5  N2  <0> d          -0.039  -1.984  -4.994  0.00  0.00    -0.182 NA
ATOM      6  C4  <0> d          -1.283  -1.505  -5.175  0.00  0.00     0.283 C 
ATOM      7  O3  <0> d          -1.963  -1.871  -6.120  0.00  0.00    -0.265 OA
ATOM      8  C5  <0> d          -1.810  -0.521  -4.195  0.00  0.00     0.081 C 
ATOM      9  C6  <0> d          -2.783   0.378  -4.527  0.00  0.00     0.032 C 
ATOM     10  C13 <0> d          -1.216  -0.569  -2.827  0.00  0.00     0.146 C 
ATOM     11  N3  <0> d          -1.883  -0.279  -1.744  0.00  0.00    -0.282 NA
ATOM     12  N4  <0> d           0.137  -0.966  -2.820  0.00  0.00    -0.246 N 
ATOM     13  H9  <0> d          -2.815  -0.016  -1.804  0.00  0.00     0.188 HD
ENDROOT
BRANCH   9  14
ATOM     14  C7  <0> d          -3.206   0.517  -5.925  0.00  0.00    -0.035 A 
ATOM     15  C12 <0> d          -2.262   0.436  -6.958  0.00  0.00     0.012 A 
ATOM     16  C11 <0> d          -2.668   0.563  -8.268  0.00  0.00     0.020 A 
ATOM     17  C10 <0> d          -4.004   0.782  -8.565  0.00  0.00     0.011 A 
ATOM     18  C9  <0> d          -4.943   0.869  -7.550  0.00  0.00     0.020 A 
ATOM     19 Br1  <0> d          -4.549   0.962 -10.367  0.00  0.00    -0.051 Br
ATOM     20  C8  <0> d          -4.554   0.739  -6.234  0.00  0.00     0.012 A 
ENDBRANCH   9  14
BRANCH   1  21
ATOM     21  S1  <0> d           0.631   0.238  -0.436  0.00  0.00     0.206 S 
ATOM     22  C1  <0> d          -0.213  -0.909   0.688  0.00  0.00     0.170 C 
ATOM     23  O1  <0> d          -0.285   1.210  -0.922  0.00  0.00    -0.220 OA
ATOM     24  O2  <0> d           1.881   0.632   0.115  0.00  0.00    -0.220 OA
ENDBRANCH   1  21
TORSDOF 2
