REMARK  2 active torsions:
REMARK  status: ('A' for Active; 'I' for Inactive)
REMARK    1  A    between atoms: C7_7  and  C8_10 
REMARK       I    between atoms: C8_10  and  N3_12 
REMARK    2  A    between atoms: N3_12  and  C9_13 
ROOT
ATOM      1  C8  <0> d           1.488  -2.855   0.628  0.00  0.00     0.249 C 
ATOM      2  O1  <0> d           2.643  -3.205   0.509  0.00  0.00    -0.271 OA
ATOM      3  N3  <0> d           0.540  -3.376  -0.176  0.00  0.00    -0.345 N 
ATOM      4  H11 <0> d          -0.384  -3.096  -0.082  0.00  0.00     0.163 HD
ENDROOT
BRANCH   1   5
ATOM      5  C7  <0> d           1.112  -1.836   1.673  0.00  0.00     0.253 A 
ATOM      6  C5  <0> d           0.961  -0.469   1.058  0.00  0.00    -0.018 A 
ATOM      7  C4  <0> d           1.886   0.284   1.661  0.00  0.00     0.061 A 
ATOM      8  C6  <0> d           0.002  -0.004   0.002  0.00  0.00     0.039 C 
ATOM      9  C3  <0> d           2.091   1.749   1.343  0.00  0.00     0.061 C 
ATOM     10  N2  <0> d           2.572  -0.457   2.560  0.00  0.00    -0.159 NA
ATOM     11  C2  <0> d           1.421   2.054  -0.001  0.00  0.00     0.006 C 
ATOM     12  C1  <0> d          -0.019   1.531   0.011  0.00  0.00     0.005 C 
ATOM     13  N1  <0> d           2.214  -1.637   2.635  0.00  0.00    -0.173 NA
ENDBRANCH   1   5
BRANCH   3  14
ATOM     14  C9  <0> d           0.905  -4.366  -1.193  0.00  0.00     0.186 C 
ATOM     15  C12 <0> d           0.855  -5.766  -0.613  0.00  0.00     0.281 C 
ATOM     16  O2  <0> d          -0.121  -6.461  -1.237  0.00  0.00    -0.320 OA
ATOM     17  O3  <0> d           1.572  -6.190   0.263  0.00  0.00    -0.263 OA
ATOM     18  C11 <0> d          -0.283  -5.920  -2.565  0.00  0.00     0.181 C 
ATOM     19  C10 <0> d          -0.148  -4.391  -2.330  0.00  0.00     0.062 C 
ENDBRANCH   3  14
TORSDOF 2
