REMARK  2 active torsions:
REMARK  status: ('A' for Active; 'I' for Inactive)
REMARK    1  A    between atoms: N1_5  and  C5_7 
REMARK    2  A    between atoms: C12_18  and  C13_19 
ROOT
ATOM      1  C1  <0> d           0.492   1.756  -0.289  0.00  0.00     0.073 C 
ATOM      2  C2  <0> d           0.554   0.257  -0.152  0.00  0.00     0.063 A 
ATOM      3  C3  <0> d           0.230  -0.674  -1.162  0.00  0.00     0.032 A 
ATOM      4  C4  <0> d           0.413  -1.913  -0.656  0.00  0.00     0.143 A 
ATOM      5  N1  <0> d           0.842  -1.757   0.644  0.00  0.00    -0.198 N 
ATOM      6  N2  <0> d           0.923  -0.391   0.915  0.00  0.00    -0.169 NA
ATOM      7  N4  <0> d           0.252  -3.161  -1.206  0.00  0.00    -0.310 N 
ATOM      8  C10 <0> d          -0.168  -3.613  -2.349  0.00  0.00     0.232 C 
ATOM      9  O1  <0> d          -0.263  -4.821  -2.417  0.00  0.00    -0.272 OA
ATOM     10  C11 <0> d          -0.550  -2.890  -3.580  0.00  0.00     0.178 C 
ATOM     11  S1  <0> d          -1.431  -1.358  -3.250  0.00  0.00    -0.145 SA
ATOM     12  C12 <0> d          -0.230  -0.243  -2.520  0.00  0.00     0.119 C 
ATOM     13  H9  <0> d           0.513  -3.871  -0.599  0.00  0.00     0.170 HD
ENDROOT
BRANCH   5  14
ATOM     14  C5  <0> d           1.148  -2.789   1.536  0.00  0.00     0.152 A 
ATOM     15  N3  <0> d           0.596  -3.980   1.374  0.00  0.00    -0.241 NA
ATOM     16  C9  <0> d           0.861  -4.983   2.189  0.00  0.00     0.119 A 
ATOM     17  C8  <0> d           1.724  -4.819   3.255  0.00  0.00     0.019 A 
ATOM     18  C7  <0> d           2.320  -3.583   3.463  0.00  0.00     0.005 A 
ATOM     19  C6  <0> d           2.025  -2.553   2.588  0.00  0.00     0.052 A 
ENDBRANCH   5  14
BRANCH  12  20
ATOM     20  C13 <0> d          -0.847   1.128  -2.409  0.00  0.00    -0.040 A 
ATOM     21  C18 <0> d          -0.207   2.220  -2.964  0.00  0.00     0.009 A 
ATOM     22  C17 <0> d          -0.775   3.477  -2.866  0.00  0.00     0.001 A 
ATOM     23  C16 <0> d          -1.978   3.642  -2.206  0.00  0.00     0.000 A 
ATOM     24  C15 <0> d          -2.615   2.550  -1.646  0.00  0.00     0.001 A 
ATOM     25  C14 <0> d          -2.049   1.293  -1.748  0.00  0.00     0.009 A 
ENDBRANCH  12  20
TORSDOF 2
