REMARK  7 active torsions:
REMARK  status: ('A' for Active; 'I' for Inactive)
REMARK    1  A    between atoms: C2_2  and  O1_3 
REMARK    2  A    between atoms: O1_3  and  C3_4 
REMARK    3  A    between atoms: C3_4  and  C4_6 
REMARK    4  A    between atoms: C5_7  and  N4_37 
REMARK    5  A    between atoms: N1_12  and  C22_29 
REMARK    6  A    between atoms: N2_23  and  C19_26 
REMARK    7  A    between atoms: C22_29  and  C23_30 
ROOT
ATOM      1  C4  <0> d           1.875  -1.320  -2.208  0.00  0.00     0.095 C 
ATOM      2  C5  <0> d           1.669  -2.622  -2.537  0.00  0.00     0.156 C 
ATOM      3  O3  <0> d           2.084  -3.132  -3.708  0.00  0.00    -0.293 OA
ATOM      4  C6  <0> d           3.027  -2.492  -4.432  0.00  0.00     0.093 A 
ATOM      5  C7  <0> d           3.735  -3.185  -5.435  0.00  0.00     0.063 A 
ATOM      6  C8  <0> d           4.677  -2.542  -6.158  0.00  0.00     0.014 A 
ATOM      7  N1  <0> d           4.954  -1.231  -5.933  0.00  0.00    -0.314 N 
ATOM      8  C9  <0> d           4.300  -0.536  -4.984  0.00  0.00     0.259 A 
ATOM      9  O4  <0> d           4.565   0.642  -4.798  0.00  0.00    -0.267 OA
ATOM     10  C10 <0> d           3.315  -1.161  -4.209  0.00  0.00     0.072 A 
ATOM     11  C11 <0> d           2.578  -0.387  -3.152  0.00  0.00     0.143 A 
ATOM     12  C12 <0> d           1.613   0.580  -3.767  0.00  0.00    -0.003 A 
ATOM     13  C13 <0> d           0.513   0.382  -4.572  0.00  0.00     0.011 A 
ATOM     14  C14 <0> d          -0.182   1.516  -4.981  0.00  0.00     0.001 A 
ATOM     15  C15 <0> d           0.216   2.780  -4.595  0.00  0.00     0.002 A 
ATOM     16  C16 <0> d           1.322   2.986  -3.785  0.00  0.00     0.030 A 
ATOM     17  C17 <0> d           2.028   1.856  -3.368  0.00  0.00     0.045 A 
ATOM     18  N2  <0> d           3.153   1.768  -2.568  0.00  0.00    -0.312 N 
ATOM     19  C18 <0> d           3.547   0.490  -2.387  0.00  0.00     0.248 A 
ATOM     20  O5  <0> d           4.498   0.115  -1.734  0.00  0.00    -0.271 OA
ATOM     21  C28 <0> d           5.430  -3.288  -7.228  0.00  0.00     0.068 C 
ENDROOT
BRANCH   1  22
ATOM     22  C3  <0> d           1.420  -0.838  -0.972  0.00  0.00     0.295 C 
ATOM     23  O2  <0> d           0.378  -0.210  -0.909  0.00  0.00    -0.259 OA
BRANCH  22  24
ATOM     24  O1  <0> d           2.137  -1.071   0.149  0.00  0.00    -0.318 OA
BRANCH  24  25
ATOM     25  C2  <0> d           1.627  -0.530   1.369  0.00  0.00     0.174 C 
ATOM     26  C1  <0> d           2.613  -0.815   2.505  0.00  0.00     0.034 C 
ENDBRANCH  24  25
ENDBRANCH  22  24
ENDBRANCH   1  22
BRANCH   2  27
ATOM     27  N4  <0> d           1.020  -3.437  -1.649  0.00  0.00    -0.379 N 
ATOM     28  H27 <0> d           0.633  -3.064  -0.842  0.00  0.00     0.158 HD
ATOM     29  H28 <0> d           0.949  -4.388  -1.826  0.00  0.00     0.158 HD
ENDBRANCH   2  27
BRANCH  18  30
ATOM     30  C19 <0> d           3.836   2.926  -1.985  0.00  0.00     0.085 C 
ATOM     31  C20 <0> d           3.825   2.810  -0.460  0.00  0.00     0.032 C 
ATOM     32  C21 <0> d           5.282   2.969  -2.483  0.00  0.00     0.032 C 
ENDBRANCH  18  30
BRANCH   7  33
ATOM     33  C22 <0> d           5.982  -0.563  -6.736  0.00  0.00     0.170 C 
BRANCH  33  34
ATOM     34  C23 <0> d           5.333   0.131  -7.906  0.00  0.00    -0.037 A 
ATOM     35  C27 <0> d           4.789   1.398  -7.766  0.00  0.00     0.028 A 
ATOM     36  C26 <0> d           4.208   2.006  -8.863  0.00  0.00     0.116 A 
ATOM     37  N3  <0> d           4.157   1.390 -10.027  0.00  0.00    -0.273 NA
ATOM     38  C25 <0> d           4.660   0.182 -10.195  0.00  0.00     0.116 A 
ATOM     39  C24 <0> d           5.262  -0.485  -9.146  0.00  0.00     0.028 A 
ENDBRANCH  33  34
ENDBRANCH   7  33
TORSDOF 7
