REMARK  3 active torsions:
REMARK  status: ('A' for Active; 'I' for Inactive)
REMARK    1  A    between atoms: C4_6  and  N2_7 
REMARK    2  A    between atoms: N2_7  and  C5_8 
REMARK    3  A    between atoms: C9_12  and  O2_14 
ROOT
ATOM      1  N2  <0> d          -1.817  -4.338  -0.014  0.00  0.00    -0.364 N 
ATOM      2  H5  <0> d          -0.896  -4.643  -0.020  0.00  0.00     0.165 HD
ENDROOT
BRANCH   1   3
ATOM      3  C4  <0> d          -2.096  -2.998  -0.005  0.00  0.00     0.113 C 
ATOM      4  C3  <0> d          -1.084  -2.095  -0.004  0.00  0.00     0.091 A 
ATOM      5  C2  <0> d          -1.139  -0.671   0.004  0.00  0.00     0.267 A 
ATOM      6  S1  <0> d           0.683  -2.368  -0.015  0.00  0.00    -0.053 SA
ATOM      7  N1  <0> d           0.002  -0.004   0.002  0.00  0.00    -0.303 N 
ATOM      8  O1  <0> d          -2.207  -0.085   0.013  0.00  0.00    -0.266 OA
ATOM      9  C1  <0> d          -0.018   1.461   0.010  0.00  0.00     0.161 C 
ATOM     10  C11 <0> d           1.187  -0.654  -0.013  0.00  0.00     0.148 A 
ATOM     11  S2  <0> d           2.769  -0.001  -0.026  0.00  0.00    -0.052 SA
ENDBRANCH   1   3
BRANCH   1  12
ATOM     12  C5  <0> d          -2.860  -5.268  -0.014  0.00  0.00     0.034 A 
ATOM     13  C10 <0> d          -2.579  -6.628  -0.023  0.00  0.00     0.066 A 
ATOM     14  C9  <0> d          -3.617  -7.547  -0.017  0.00  0.00     0.067 A 
ATOM     15  C8  <0> d          -4.933  -7.107  -0.014  0.00  0.00     0.036 A 
ATOM     16  C7  <0> d          -5.211  -5.753  -0.011  0.00  0.00     0.005 A 
ATOM     17  C6  <0> d          -4.180  -4.833  -0.011  0.00  0.00     0.029 A 
BRANCH  14  18
ATOM     18  O2  <0> d          -3.345  -8.878  -0.020  0.00  0.00    -0.361 OA
ATOM     19  H10 <0> d          -3.268  -9.262  -0.904  0.00  0.00     0.217 HD
ENDBRANCH  14  18
ENDBRANCH   1  12
TORSDOF 3
