REMARK  5 active torsions:
REMARK  status: ('A' for Active; 'I' for Inactive)
REMARK    1  A    between atoms: N2_7  and  S2_8 
REMARK    2  A    between atoms: S2_8  and  C5_11 
REMARK    3  A    between atoms: C10_16  and  C11_17 
REMARK    4  A    between atoms: C12_18  and  C13_19 
REMARK    5  A    between atoms: C13_19  and  N3_20 
ROOT
ATOM      1  C5  <0> d           4.804  -3.724  -0.045  0.00  0.00     0.100 A 
ATOM      2  C6  <0> d           5.623  -3.959  -1.130  0.00  0.00     0.027 A 
ATOM      3  C7  <0> d           6.460  -5.060  -1.143  0.00  0.00     0.002 A 
ATOM      4  C8  <0> d           6.483  -5.932  -0.068  0.00  0.00     0.002 A 
ATOM      5  C9  <0> d           5.670  -5.707   1.023  0.00  0.00     0.022 A 
ATOM      6  C10 <0> d           4.827  -4.596   1.044  0.00  0.00     0.041 A 
ENDROOT
BRANCH   1   7
ATOM      7  S2  <0> d           3.739  -2.321  -0.031  0.00  0.00     0.287 S 
ATOM      8  O1  <0> d           3.925  -1.656  -1.273  0.00  0.00    -0.198 OA
ATOM      9  O2  <0> d           3.938  -1.671   1.218  0.00  0.00    -0.198 OA
BRANCH   7  10
ATOM     10  N2  <0> d           2.183  -2.888  -0.026  0.00  0.00    -0.134 NA
ATOM     11  C4  <0> d           1.179  -2.046  -0.016  0.00  0.00     0.183 A 
ATOM     12  S1  <0> d          -0.577  -2.377  -0.009  0.00  0.00    -0.054 SA
ATOM     13  N1  <0> d           1.194  -0.668  -0.013  0.00  0.00    -0.337 N 
ATOM     14  C3  <0> d          -1.144  -0.684   0.004  0.00  0.00     0.004 A 
ATOM     15  C2  <0> d           0.002  -0.004   0.002  0.00  0.00     0.020 A 
ATOM     16  C14 <0> d          -2.557  -0.159   0.016  0.00  0.00     0.058 C 
ATOM     17  C1  <0> d          -0.018   1.503   0.010  0.00  0.00     0.069 C 
ATOM     18  H16 <0> d           2.033  -0.181  -0.019  0.00  0.00     0.168 HD
ENDBRANCH   7  10
ENDBRANCH   1   7
BRANCH   6  19
ATOM     19  C11 <0> d           3.984  -4.354   2.176  0.00  0.00    -0.064 C 
ATOM     20  C12 <0> d           3.293  -4.155   3.104  0.00  0.00    -0.074 C 
BRANCH  20  21
ATOM     21  C13 <0> d           2.426  -3.907   4.268  0.00  0.00     0.323 C 
BRANCH  21  22
ATOM     22  N3  <0> d           2.637  -4.961   5.270  0.00  0.00    -0.069 N 
ATOM     23  H10 <0> d           2.410  -5.858   4.867  0.00  0.00     0.275 HD
ATOM     24  H11 <0> d           3.602  -4.958   5.562  0.00  0.00     0.275 HD
ATOM     25  H15 <0> d           2.043  -4.790   6.067  0.00  0.00     0.275 HD
ENDBRANCH  21  22
ENDBRANCH  20  21
ENDBRANCH   6  19
TORSDOF 5
