REMARK  3 active torsions:
REMARK  status: ('A' for Active; 'I' for Inactive)
REMARK    1  A    between atoms: C6_6  and  C7_7 
REMARK    2  A    between atoms: C10_12  and  C11_15 
REMARK    3  A    between atoms: C11_15  and  N4_16 
ROOT
ATOM      1  C7  <0> d          -1.266  -0.764   0.010  0.00  0.00     0.060 A 
ATOM      2  C8  <0> d          -2.104  -0.684  -1.043  0.00  0.00     0.084 A 
ATOM      3  S1  <0> d          -3.439  -1.757  -0.536  0.00  0.00    -0.059 SA
ATOM      4  C9  <0> d          -2.781  -2.232   1.042  0.00  0.00     0.200 A 
ATOM      5  N1  <0> d          -1.587  -1.558   1.095  0.00  0.00    -0.272 N 
ATOM      6  C10 <0> d          -1.058  -1.923   2.318  0.00  0.00     0.161 A 
ATOM      7  N2  <0> d          -1.896  -2.739   2.891  0.00  0.00    -0.132 NA
ATOM      8  N3  <0> d          -2.924  -2.918   2.136  0.00  0.00    -0.122 NA
ENDROOT
BRANCH   1   9
ATOM      9  C6  <0> d           0.002  -0.004   0.002  0.00  0.00    -0.008 A 
ATOM     10  C1  <0> d          -0.017   1.391   0.010  0.00  0.00     0.015 A 
ATOM     11  C2  <0> d           1.170   2.095   0.002  0.00  0.00     0.020 A 
ATOM     12  C3  <0> d           2.378   1.419  -0.013  0.00  0.00     0.011 A 
ATOM     13  C4  <0> d           2.403   0.035  -0.021  0.00  0.00     0.020 A 
ATOM     14 Br1  <0> d           4.000   2.390  -0.024  0.00  0.00    -0.051 Br
ATOM     15  C5  <0> d           1.223  -0.680  -0.014  0.00  0.00     0.015 A 
ENDBRANCH   1   9
BRANCH   6  16
ATOM     16  C11 <0> d           0.256  -1.458   2.890  0.00  0.00     0.310 C 
BRANCH  16  17
ATOM     17  N4  <0> d           0.045  -0.233   3.672  0.00  0.00    -0.072 N 
ATOM     18  H8  <0> d          -0.335   0.486   3.075  0.00  0.00     0.274 HD
ATOM     19  H9  <0> d          -0.601  -0.421   4.424  0.00  0.00     0.274 HD
ATOM     20  H10 <0> d           0.925   0.078   4.054  0.00  0.00     0.274 HD
ENDBRANCH  16  17
ENDBRANCH   6  16
TORSDOF 3
