REMARK  6 active torsions:
REMARK  status: ('A' for Active; 'I' for Inactive)
REMARK    1  A    between atoms: C2_2  and  C3_3 
REMARK    2  A    between atoms: C3_3  and  C4_4 
REMARK    3  A    between atoms: C11_13  and  S2_15 
REMARK    4  A    between atoms: S2_15  and  C12_16 
REMARK    5  A    between atoms: C12_16  and  C13_17 
REMARK       I    between atoms: C13_17  and  N3_19 
REMARK    6  A    between atoms: N3_19  and  C14_20 
ROOT
ATOM      1  C12 <0> d          -2.448  -3.967  -3.753  0.00  0.00     0.184 C 
ENDROOT
BRANCH   1   2
ATOM      2  S2  <0> d          -2.151  -5.315  -2.582  0.00  0.00    -0.100 SA
BRANCH   2   3
ATOM      3  C11 <0> d          -2.112  -4.406  -1.073  0.00  0.00     0.109 A 
ATOM      4  C6  <0> d          -1.896  -5.073   0.165  0.00  0.00     0.042 A 
ATOM      5  C5  <0> d          -1.885  -4.242   1.306  0.00  0.00     0.113 A 
ATOM      6  C7  <0> d          -1.685  -6.485   0.434  0.00  0.00    -0.033 A 
ATOM      7  N1  <0> d          -2.063  -2.940   1.210  0.00  0.00    -0.225 NA
ATOM      8  S1  <0> d          -1.599  -5.377   2.639  0.00  0.00    -0.074 SA
ATOM      9  C4  <0> d          -2.259  -2.378   0.033  0.00  0.00     0.128 A 
ATOM     10  N2  <0> d          -2.288  -3.094  -1.076  0.00  0.00    -0.226 NA
ATOM     11  C8  <0> d          -1.501  -6.889   1.700  0.00  0.00    -0.012 A 
ATOM     12  C9  <0> d          -1.267  -8.289   2.207  0.00  0.00     0.057 C 
ATOM     13  C10 <0> d          -1.674  -7.483  -0.694  0.00  0.00     0.050 C 
BRANCH   9  14
ATOM     14  C3  <0> d          -2.461  -0.886  -0.047  0.00  0.00     0.080 C 
BRANCH  14  15
ATOM     15  C2  <0> d          -1.107  -0.197  -0.223  0.00  0.00     0.003 C 
ATOM     16  C1  <0> d          -1.311   1.317  -0.304  0.00  0.00     0.005 C 
ENDBRANCH  14  15
ENDBRANCH   9  14
ENDBRANCH   2   3
ENDBRANCH   1   2
BRANCH   1  17
ATOM     17  C13 <0> d          -2.521  -4.524  -5.152  0.00  0.00     0.232 C 
ATOM     18  O1  <0> d          -2.386  -5.715  -5.338  0.00  0.00    -0.272 OA
ATOM     19  N3  <0> d          -2.737  -3.699  -6.195  0.00  0.00    -0.320 N 
ATOM     20  H18 <0> d          -2.759  -2.739  -6.058  0.00  0.00     0.169 HD
BRANCH  19  21
ATOM     21  C14 <0> d          -2.929  -4.230  -7.483  0.00  0.00     0.126 A 
ATOM     22  C17 <0> d          -3.963  -5.174  -7.727  0.00  0.00     0.278 A 
ATOM     23  N5  <0> d          -4.127  -5.667  -8.971  0.00  0.00    -0.274 N 
ATOM     24  O3  <0> d          -4.693  -5.534  -6.821  0.00  0.00    -0.265 OA
ATOM     25  C16 <0> d          -3.321  -5.270  -9.972  0.00  0.00     0.327 A 
ATOM     26  H2  <0> d          -4.852  -6.332  -9.150  0.00  0.00     0.173 HD
ATOM     27  N4  <0> d          -2.338  -4.377  -9.759  0.00  0.00    -0.310 N 
ATOM     28  O2  <0> d          -3.484  -5.725 -11.088  0.00  0.00    -0.247 OA
ATOM     29  C15 <0> d          -2.136  -3.844  -8.511  0.00  0.00     0.042 A 
ATOM     30  H1  <0> d          -1.748  -4.099 -10.517  0.00  0.00     0.170 HD
ATOM     31  C18 <0> d          -1.035  -2.840  -8.284  0.00  0.00     0.071 C 
ENDBRANCH  19  21
ENDBRANCH   1  17
TORSDOF 6
