REMARK  6 active torsions:
REMARK  status: ('A' for Active; 'I' for Inactive)
REMARK    1  A    between atoms: C2_2  and  C3_3 
REMARK    2  A    between atoms: C2_2  and  N3_12 
REMARK       I    between atoms: N3_12  and  C10_13 
REMARK    3  A    between atoms: C10_13  and  C11_15 
REMARK    4  A    between atoms: C11_15  and  S1_16 
REMARK    5  A    between atoms: S1_16  and  C12_17 
REMARK    6  A    between atoms: C13_19  and  C17_27 
ROOT
ATOM      1  C11 <0> d          -3.465  -1.164  -1.134  0.00  0.00     0.180 C 
ENDROOT
BRANCH   1   2
ATOM      2  C10 <0> d          -2.051  -0.643  -1.145  0.00  0.00     0.227 C 
ATOM      3  N3  <0> d          -1.372  -0.511   0.012  0.00  0.00    -0.352 N 
ATOM      4  H11 <0> d          -1.794  -0.752   0.852  0.00  0.00     0.163 HD
ATOM      5  O1  <0> d          -1.524  -0.341  -2.194  0.00  0.00    -0.273 OA
BRANCH   3   6
ATOM      6  C2  <0> d           0.002  -0.004   0.002  0.00  0.00     0.122 C 
ATOM      7  C1  <0> d          -0.019   1.526   0.010  0.00  0.00     0.036 C 
BRANCH   6   8
ATOM      8  C3  <0> d           0.742  -0.511   1.242  0.00  0.00     0.204 A 
ATOM      9  N2  <0> d           2.122  -0.010   1.244  0.00  0.00    -0.365 N 
ATOM     10  C9  <0> d           2.274   0.711   2.317  0.00  0.00     0.056 A 
ATOM     11  H23 <0> d           2.798  -0.185   0.571  0.00  0.00     0.162 HD
ATOM     12  C4  <0> d           0.999   0.727   3.085  0.00  0.00     0.056 A 
ATOM     13  C8  <0> d           3.412   1.463   2.863  0.00  0.00     0.031 A 
ATOM     14  N1  <0> d           0.108   0.015   2.457  0.00  0.00    -0.365 N 
ATOM     15  C5  <0> d           0.963   1.493   4.339  0.00  0.00     0.031 A 
ATOM     16  H22 <0> d          -0.807  -0.140   2.740  0.00  0.00     0.162 HD
ATOM     17  C6  <0> d           2.067   2.148   4.750  0.00  0.00     0.002 A 
ATOM     18  C7  <0> d           3.271   2.133   4.025  0.00  0.00     0.002 A 
ENDBRANCH   6   8
ENDBRANCH   3   6
ENDBRANCH   1   2
BRANCH   1  19
ATOM     19  S1  <0> d          -4.100  -1.225  -2.832  0.00  0.00    -0.110 SA
BRANCH  19  20
ATOM     20  C12 <0> d          -5.787  -1.865  -2.647  0.00  0.00     0.297 A 
ATOM     21  N6  <0> d          -5.698  -3.233  -2.102  0.00  0.00    -0.240 N 
ATOM     22  C14 <0> d          -6.335  -3.483  -0.925  0.00  0.00     0.135 A 
ATOM     23  N7  <0> d          -5.059  -4.375  -2.580  0.00  0.00    -0.263 N 
ATOM     24  N5  <0> d          -6.997  -2.555  -0.301  0.00  0.00    -0.213 NA
ATOM     25  C16 <0> d          -6.082  -4.941  -0.607  0.00  0.00     0.184 A 
ATOM     26  C13 <0> d          -7.115  -1.284  -0.748  0.00  0.00     0.159 A 
ATOM     27  N4  <0> d          -6.561  -0.887  -1.863  0.00  0.00    -0.232 NA
ATOM     28  C15 <0> d          -5.233  -5.428  -1.760  0.00  0.00     0.243 A 
ATOM     29  O2  <0> d          -4.796  -6.548  -1.916  0.00  0.00    -0.271 OA
ATOM     30  H14 <0> d          -4.549  -4.407  -3.405  0.00  0.00     0.190 HD
BRANCH  26  31
ATOM     31  C17 <0> d          -7.897  -0.311   0.052  0.00  0.00     0.011 A 
ATOM     32  C22 <0> d          -8.498  -0.709   1.246  0.00  0.00     0.015 A 
ATOM     33  C21 <0> d          -9.220   0.203   1.989  0.00  0.00     0.001 A 
ATOM     34  C20 <0> d          -9.358   1.506   1.545  0.00  0.00     0.000 A 
ATOM     35  C19 <0> d          -8.769   1.905   0.359  0.00  0.00     0.001 A 
ATOM     36  C18 <0> d          -8.039   1.004  -0.389  0.00  0.00     0.015 A 
ENDBRANCH  26  31
ENDBRANCH  19  20
ENDBRANCH   1  19
TORSDOF 6
