REMARK  4 active torsions:
REMARK  status: ('A' for Active; 'I' for Inactive)
REMARK    1  A    between atoms: C7_7  and  C8_8 
REMARK    2  A    between atoms: C8_8  and  N1_10 
REMARK       I    between atoms: N1_10  and  C10_11 
REMARK    3  A    between atoms: C10_11  and  C11_13 
REMARK    4  A    between atoms: N3_15  and  C15_20 
ROOT
ATOM      1  C11 <0> d           1.805  -1.060   5.663  0.00  0.00     0.122 C 
ATOM      2  N2  <0> d           1.793  -2.350   5.532  0.00  0.00    -0.168 NA
ATOM      3  N3  <0> d           2.359  -3.182   6.504  0.00  0.00    -0.232 N 
ATOM      4  C12 <0> d           2.581  -2.720   7.750  0.00  0.00     0.240 C 
ATOM      5  O2  <0> d           3.068  -3.447   8.590  0.00  0.00    -0.272 OA
ATOM      6  C13 <0> d           2.222  -1.298   8.097  0.00  0.00     0.111 C 
ATOM      7  C14 <0> d           2.438  -0.411   6.865  0.00  0.00     0.076 C 
ENDROOT
BRANCH   1   8
ATOM      8  C10 <0> d           1.199  -0.221   4.623  0.00  0.00     0.268 C 
ATOM      9  N1  <0> d           0.630  -0.793   3.543  0.00  0.00    -0.348 N 
ATOM     10  H13 <0> d           0.621  -1.758   3.453  0.00  0.00     0.163 HD
ATOM     11  O1  <0> d           1.211   0.990   4.735  0.00  0.00    -0.266 OA
BRANCH   9  12
ATOM     12  C8  <0> d           0.025   0.045   2.504  0.00  0.00     0.114 C 
ATOM     13  C9  <0> d          -1.413   0.387   2.899  0.00  0.00     0.037 C 
BRANCH  12  14
ATOM     14  C7  <0> d           0.023  -0.702   1.195  0.00  0.00    -0.030 A 
ATOM     15  C2  <0> d           0.002  -0.004   0.002  0.00  0.00    -0.054 A 
ATOM     16  C1  <0> d          -0.018   1.503   0.010  0.00  0.00     0.049 C 
ATOM     17  C3  <0> d           0.006  -0.689  -1.199  0.00  0.00     0.007 A 
ATOM     18  C4  <0> d           0.025  -2.071  -1.207  0.00  0.00     0.001 A 
ATOM     19  C5  <0> d           0.040  -2.768  -0.013  0.00  0.00     0.001 A 
ATOM     20  C6  <0> d           0.037  -2.084   1.188  0.00  0.00     0.010 A 
ENDBRANCH  12  14
ENDBRANCH   9  12
ENDBRANCH   1   8
BRANCH   3  21
ATOM     21  C15 <0> d           2.713  -4.562   6.164  0.00  0.00     0.128 C 
ATOM     22  C18 <0> d           3.769  -4.559   5.033  0.00  0.00     0.167 C 
ATOM     23  S1  <0> d           3.380  -6.101   4.111  0.00  0.00     0.146 S 
ATOM     24  C17 <0> d           1.900  -6.657   5.057  0.00  0.00     0.142 C 
ATOM     25  O3  <0> d           2.984  -5.762   2.790  0.00  0.00    -0.228 OA
ATOM     26  O4  <0> d           4.432  -7.037   4.307  0.00  0.00    -0.228 OA
ATOM     27  C16 <0> d           1.454  -5.313   5.702  0.00  0.00     0.043 C 
ENDBRANCH   3  21
TORSDOF 4
