REMARK  3 active torsions:
REMARK  status: ('A' for Active; 'I' for Inactive)
REMARK    1  A    between atoms: C2_2  and  C3_3 
REMARK    2  A    between atoms: C3_3  and  C6_6 
REMARK    3  A    between atoms: C6_6  and  C7_8 
ROOT
ATOM      1  C7  <0> d           1.348  -2.638  -2.439  0.00  0.00     0.030 A 
ATOM      2  C8  <0> d           1.619  -1.903  -3.600  0.00  0.00     0.048 A 
ATOM      3  C9  <0> d           2.104  -2.548  -4.720  0.00  0.00     0.064 A 
ATOM      4  C10 <0> d           2.324  -3.930  -4.695  0.00  0.00     0.064 A 
ATOM      5  C11 <0> d           2.054  -4.659  -3.542  0.00  0.00     0.052 A 
ATOM      6  C12 <0> d           1.576  -4.021  -2.419  0.00  0.00     0.027 A 
ATOM      7 Br1  <0> d           1.218  -5.014  -0.850  0.00  0.00    -0.050 Br
ATOM      8  N1  <0> d           2.805  -4.283  -5.947  0.00  0.00    -0.306 N 
ATOM      9  H1  <0> d           3.048  -5.179  -6.229  0.00  0.00     0.170 HD
ATOM     10  C13 <0> d           2.879  -3.173  -6.705  0.00  0.00     0.325 A 
ATOM     11  O2  <0> d           3.264  -3.137  -7.859  0.00  0.00    -0.247 OA
ATOM     12  N2  <0> d           2.463  -2.108  -5.994  0.00  0.00    -0.306 N 
ATOM     13  H2  <0> d           2.419  -1.193  -6.313  0.00  0.00     0.170 HD
ENDROOT
BRANCH   1  14
ATOM     14  C6  <0> d           0.832  -1.960  -1.244  0.00  0.00     0.168 C 
ATOM     15  O1  <0> d           0.495  -2.609  -0.276  0.00  0.00    -0.291 OA
BRANCH  14  16
ATOM     16  C3  <0> d           0.721  -0.457  -1.218  0.00  0.00     0.018 C 
ATOM     17  C4  <0> d          -0.306  -0.004  -2.258  0.00  0.00     0.023 C 
ATOM     18  C5  <0> d           2.082   0.161  -1.544  0.00  0.00     0.023 C 
BRANCH  16  19
ATOM     19  C2  <0> d           0.274  -0.002   0.172  0.00  0.00     0.012 C 
ATOM     20  C1  <0> d           0.162   1.524   0.198  0.00  0.00     0.006 C 
ENDBRANCH  16  19
ENDBRANCH  14  16
ENDBRANCH   1  14
TORSDOF 3
