REMARK  6 active torsions:
REMARK  status: ('A' for Active; 'I' for Inactive)
REMARK    1  A    between atoms: C4_4  and  C7_7 
REMARK    2  A    between atoms: C7_7  and  C8_8 
REMARK    3  A    between atoms: C7_7  and  N4_28 
REMARK    4  A    between atoms: C8_8  and  N1_9 
REMARK       I    between atoms: N1_9  and  C9_10 
REMARK    5  A    between atoms: C9_10  and  C10_12 
REMARK       I    between atoms: N2_14  and  C18_22 
REMARK    6  A    between atoms: C18_22  and  C19_24 
ROOT
ATOM      1  C10 <0> d           7.107  -3.208   2.623  0.00  0.00     0.106 C 
ATOM      2  C11 <0> d           8.315  -2.454   2.024  0.00  0.00     0.140 C 
ATOM      3  N2  <0> d           8.967  -1.808   3.188  0.00  0.00    -0.350 N 
ATOM      4  C12 <0> d           8.878  -2.820   4.268  0.00  0.00     0.136 C 
ATOM      5  C13 <0> d           7.482  -3.450   4.095  0.00  0.00    -0.007 C 
ATOM      6  C14 <0> d           7.538  -4.946   4.387  0.00  0.00     0.039 C 
ATOM      7  C15 <0> d           7.855  -5.161   5.869  0.00  0.00     0.233 C 
ATOM      8  N3  <0> d           6.821  -4.520   6.691  0.00  0.00    -0.075 N 
ATOM      9  C16 <0> d           6.837  -3.068   6.473  0.00  0.00     0.233 C 
ATOM     10  C17 <0> d           6.477  -2.765   5.016  0.00  0.00     0.039 C 
ATOM     11  C18 <0> d           9.518  -0.580   3.249  0.00  0.00     0.224 C 
ATOM     12  O2  <0> d          10.018  -0.191   4.283  0.00  0.00    -0.273 OA
ATOM     13  H19 <0> d           5.917  -4.887   6.437  0.00  0.00     0.277 HD
ATOM     14  H39 <0> d           6.999  -4.714   7.665  0.00  0.00     0.277 HD
ENDROOT
BRANCH   1  15
ATOM     15  C9  <0> d           5.862  -2.364   2.531  0.00  0.00     0.224 C 
ATOM     16  N1  <0> d           4.652  -2.952   2.453  0.00  0.00    -0.358 N 
ATOM     17  H10 <0> d           4.582  -3.920   2.457  0.00  0.00     0.162 HD
ATOM     18  O1  <0> d           5.949  -1.154   2.526  0.00  0.00    -0.273 OA
BRANCH  16  19
ATOM     19  C8  <0> d           3.442  -2.131   2.364  0.00  0.00     0.163 C 
BRANCH  19  20
ATOM     20  C7  <0> d           2.209  -3.036   2.389  0.00  0.00     0.273 C 
BRANCH  20  21
ATOM     21  C4  <0> d           2.217  -3.930   1.176  0.00  0.00    -0.024 A 
ATOM     22  C3  <0> d           2.650  -5.239   1.286  0.00  0.00     0.009 A 
ATOM     23  C2  <0> d           2.657  -6.060   0.173  0.00  0.00     0.001 A 
ATOM     24  C1  <0> d           2.230  -5.572  -1.048  0.00  0.00     0.000 A 
ATOM     25  C6  <0> d           1.797  -4.264  -1.157  0.00  0.00     0.001 A 
ATOM     26  C5  <0> d           1.791  -3.443  -0.045  0.00  0.00     0.009 A 
ENDBRANCH  20  21
BRANCH  20  27
ATOM     27  N4  <0> d           0.995  -2.209   2.379  0.00  0.00     0.103 N 
ATOM     28  C26 <0> d          -0.213  -3.047   2.391  0.00  0.00     0.299 C 
ATOM     29  C25 <0> d          -1.451  -2.149   2.320  0.00  0.00     0.198 C 
ATOM     30  O3  <0> d          -1.425  -1.222   3.409  0.00  0.00    -0.388 OA
ATOM     31  C24 <0> d          -0.262  -0.389   3.428  0.00  0.00     0.198 C 
ATOM     32  C23 <0> d           0.988  -1.270   3.510  0.00  0.00     0.299 C 
ENDBRANCH  20  27
ENDBRANCH  19  20
ENDBRANCH  16  19
ENDBRANCH   1  15
BRANCH  11  33
ATOM     33  C19 <0> d           9.511   0.311   2.034  0.00  0.00     0.078 C 
ATOM     34  C22 <0> d          10.176   1.678   2.268  0.00  0.00     0.014 C 
ATOM     35  C21 <0> d          10.784   1.534   0.863  0.00  0.00     0.002 C 
ATOM     36  C20 <0> d          10.651   0.013   1.046  0.00  0.00     0.014 C 
ENDBRANCH  11  33
TORSDOF 6
