REMARK  7 active torsions:
REMARK  status: ('A' for Active; 'I' for Inactive)
REMARK    1  A    between atoms: C3_3  and  C9_12 
REMARK    2  A    between atoms: N1_5  and  C5_7 
REMARK    3  A    between atoms: C5_7  and  C6_8 
REMARK    4  A    between atoms: C10_13  and  C11_14 
REMARK       I    between atoms: C11_14  and  N3_16 
REMARK    5  A    between atoms: N3_16  and  N4_17 
REMARK       I    between atoms: N4_17  and  C12_18 
REMARK    6  A    between atoms: C12_18  and  C13_20 
REMARK       I    between atoms: C13_20  and  N5_22 
REMARK    7  A    between atoms: N5_22  and  C14_23 
ROOT
ATOM      1  C11 <0> d           0.881  -0.439  -4.772  0.00  0.00     0.259 C 
ATOM      2  O1  <0> d           0.060   0.382  -5.139  0.00  0.00    -0.267 OA
ATOM      3  N3  <0> d           1.778  -0.933  -5.648  0.00  0.00    -0.264 N 
ATOM      4  H15 <0> d           2.433  -1.587  -5.356  0.00  0.00     0.190 HD
ENDROOT
BRANCH   1   5
ATOM      5  C10 <0> d           0.894  -0.874  -3.423  0.00  0.00     0.077 C 
ATOM      6  C9  <0> d          -0.005  -0.378  -2.545  0.00  0.00     0.022 C 
BRANCH   6   7
ATOM      7  C3  <0> d           0.008  -0.829  -1.147  0.00  0.00     0.030 A 
ATOM      8  C2  <0> d           0.002  -0.004   0.002  0.00  0.00     0.064 A 
ATOM      9  C1  <0> d          -0.018   1.503   0.010  0.00  0.00     0.073 C 
ATOM     10  N2  <0> d           0.023  -0.776   1.053  0.00  0.00    -0.175 NA
ATOM     11  N1  <0> d           0.035  -2.112   0.638  0.00  0.00    -0.257 N 
ATOM     12  C4  <0> d           0.029  -2.142  -0.706  0.00  0.00     0.134 A 
ATOM     13 Cl1  <0> d           0.043  -3.562  -1.704  0.00  0.00    -0.062 Cl
BRANCH  11  14
ATOM     14  C5  <0> d           0.056  -3.281   1.520  0.00  0.00     0.156 C 
BRANCH  14  15
ATOM     15  C6  <0> d           1.505  -3.668   1.820  0.00  0.00    -0.003 C 
ATOM     16  C7  <0> d           2.178  -2.549   2.617  0.00  0.00     0.011 C 
ATOM     17  C8  <0> d           1.529  -4.962   2.637  0.00  0.00     0.011 C 
ENDBRANCH  14  15
ENDBRANCH  11  14
ENDBRANCH   6   7
ENDBRANCH   1   5
BRANCH   3  18
ATOM     18  N4  <0> d           1.766  -0.503  -6.982  0.00  0.00    -0.259 N 
ATOM     19  C12 <0> d           2.663  -0.997  -7.858  0.00  0.00     0.327 C 
ATOM     20  O2  <0> d           3.481  -1.815  -7.492  0.00  0.00    -0.261 OA
ATOM     21  H16 <0> d           1.112   0.151  -7.274  0.00  0.00     0.190 HD
BRANCH  19  22
ATOM     22  C13 <0> d           2.650  -0.539  -9.280  0.00  0.00     0.311 C 
ATOM     23  O3  <0> d           1.831   0.279  -9.646  0.00  0.00    -0.262 OA
ATOM     24  N5  <0> d           3.546  -1.033 -10.156  0.00  0.00    -0.349 N 
ATOM     25  H17 <0> d           4.201  -1.687  -9.863  0.00  0.00     0.163 HD
BRANCH  24  26
ATOM     26  C14 <0> d           3.533  -0.583 -11.550  0.00  0.00     0.076 C 
ATOM     27  C15 <0> d           4.342   0.709 -11.677  0.00  0.00     0.032 C 
ATOM     28  C16 <0> d           4.154  -1.662 -12.440  0.00  0.00     0.032 C 
ENDBRANCH  24  26
ENDBRANCH  19  22
ENDBRANCH   3  18
TORSDOF 7
