REMARK  5 active torsions:
REMARK  status: ('A' for Active; 'I' for Inactive)
REMARK       I    between atoms: N1_2  and  C3_4 
REMARK    1  A    between atoms: C3_4  and  C4_6 
REMARK    2  A    between atoms: N2_10  and  C9_12 
REMARK    3  A    between atoms: C9_12  and  N3_13 
REMARK    4  A    between atoms: C11_18  and  C12_20 
REMARK    5  A    between atoms: C13_21  and  C14_22 
ROOT
ATOM      1  N3  <0> d           0.250  -6.084  -4.029  0.00  0.00    -0.216 N 
ATOM      2  C10 <0> d           1.381  -6.769  -4.292  0.00  0.00     0.197 A 
ATOM      3  S1  <0> d           2.906  -6.091  -4.676  0.00  0.00    -0.039 SA
ATOM      4  N4  <0> d           1.097  -8.083  -4.198  0.00  0.00    -0.315 N 
ATOM      5  H1  <0> d           1.722  -8.812  -4.336  0.00  0.00     0.170 HD
ATOM      6  C11 <0> d          -0.241  -8.215  -3.869  0.00  0.00     0.150 A 
ATOM      7  N5  <0> d          -0.759  -7.019  -3.759  0.00  0.00    -0.150 NA
ENDROOT
BRANCH   1   8
ATOM      8  C9  <0> d           0.103  -4.626  -4.021  0.00  0.00     0.388 C 
BRANCH   8   9
ATOM      9  N2  <0> d           0.031  -4.149  -2.633  0.00  0.00    -0.053 N 
ATOM     10  C7  <0> d          -1.189  -4.667  -2.002  0.00  0.00     0.237 C 
ATOM     11  C6  <0> d          -1.228  -4.240  -0.533  0.00  0.00     0.029 C 
ATOM     12  C5  <0> d          -1.218  -2.711  -0.451  0.00  0.00     0.017 C 
ATOM     13  C4  <0> d           0.021  -2.178  -1.177  0.00  0.00     0.104 C 
ATOM     14  C8  <0> d           0.014  -2.682  -2.622  0.00  0.00     0.251 C 
ATOM     15  H26 <0> d           0.838  -4.479  -2.124  0.00  0.00     0.281 HD
BRANCH  13  16
ATOM     16  C3  <0> d           0.000  -0.672  -1.169  0.00  0.00     0.224 C 
ATOM     17  N1  <0> d           0.002  -0.004   0.002  0.00  0.00    -0.360 N 
ATOM     18  C1  <0> d          -0.018   1.461   0.010  0.00  0.00     0.152 C 
ATOM     19  C2  <0> d           0.024  -0.743   1.267  0.00  0.00     0.152 C 
ATOM     20  O1  <0> d          -0.018  -0.060  -2.216  0.00  0.00    -0.273 OA
ENDBRANCH  13  16
ENDBRANCH   8   9
ENDBRANCH   1   8
BRANCH   6  21
ATOM     21  C12 <0> d          -0.956  -9.481  -3.671  0.00  0.00     0.053 C 
ATOM     22  C13 <0> d          -2.263  -9.473  -3.353  0.00  0.00     0.015 C 
BRANCH  22  23
ATOM     23  C14 <0> d          -2.981 -10.744  -3.154  0.00  0.00    -0.036 A 
ATOM     24  C19 <0> d          -4.339 -10.740  -2.824  0.00  0.00     0.011 A 
ATOM     25  C18 <0> d          -5.005 -11.934  -2.644  0.00  0.00     0.001 A 
ATOM     26  C17 <0> d          -4.329 -13.134  -2.780  0.00  0.00     0.000 A 
ATOM     27  C16 <0> d          -2.983 -13.146  -3.102  0.00  0.00     0.001 A 
ATOM     28  C15 <0> d          -2.305 -11.961  -3.290  0.00  0.00     0.011 A 
ENDBRANCH  22  23
ENDBRANCH   6  21
TORSDOF 5
