REMARK  5 active torsions:
REMARK  status: ('A' for Active; 'I' for Inactive)
REMARK    1  A    between atoms: C5_5  and  N1_8 
REMARK       I    between atoms: N1_8  and  C8_9 
REMARK    2  A    between atoms: C8_9  and  C9_11 
REMARK    3  A    between atoms: C9_11  and  N2_19 
REMARK    4  A    between atoms: C10_12  and  C11_13 
REMARK       I    between atoms: N2_19  and  C16_20 
REMARK    5  A    between atoms: C16_20  and  C17_22 
ROOT
ATOM      1  C9  <0> d           0.579   4.482   0.260  0.00  0.00     0.106 C 
ATOM      2  C10 <0> d           1.330   3.554  -0.391  0.00  0.00     0.072 C 
ENDROOT
BRANCH   1   3
ATOM      3  C8  <0> d          -0.831   4.210   0.552  0.00  0.00     0.272 C 
ATOM      4  N1  <0> d          -1.168   3.518   1.658  0.00  0.00    -0.322 N 
ATOM      5  H8  <0> d          -0.400   3.264   2.404  0.00  0.00     0.169 HD
ATOM      6  O1  <0> d          -1.697   4.609  -0.204  0.00  0.00    -0.266 OA
BRANCH   4   7
ATOM      7  C5  <0> d          -2.494   3.122   1.858  0.00  0.00     0.035 A 
ATOM      8  C4  <0> d          -2.998   3.004   3.147  0.00  0.00     0.030 A 
ATOM      9  C3  <0> d          -4.309   2.614   3.341  0.00  0.00     0.009 A 
ATOM     10  C2  <0> d          -5.118   2.340   2.253  0.00  0.00    -0.062 A 
ATOM     11  C1  <0> d          -6.548   1.914   2.469  0.00  0.00     0.048 C 
ATOM     12  C7  <0> d          -4.619   2.456   0.969  0.00  0.00     0.009 A 
ATOM     13  C6  <0> d          -3.311   2.851   0.768  0.00  0.00     0.030 A 
ENDBRANCH   4   7
ENDBRANCH   1   3
BRANCH   1  14
ATOM     14  N2  <0> d           1.152   5.698   0.651  0.00  0.00    -0.318 N 
ATOM     15  C16 <0> d           0.441   6.571   1.392  0.00  0.00     0.257 C 
ATOM     16  O3  <0> d          -0.660   6.262   1.804  0.00  0.00    -0.267 OA
ATOM     17  H15 <0> d           2.183   5.941   0.353  0.00  0.00     0.169 HD
BRANCH  15  18
ATOM     18  C17 <0> d           1.001   7.902   1.704  0.00  0.00     0.049 A 
ATOM     19  C22 <0> d           0.267   8.809   2.472  0.00  0.00     0.026 A 
ATOM     20  C21 <0> d           0.796  10.052   2.760  0.00  0.00     0.020 A 
ATOM     21 Br1  <0> d          -1.446   8.336   3.118  0.00  0.00    -0.050 Br
ATOM     22  C20 <0> d           2.050  10.398   2.289  0.00  0.00     0.001 A 
ATOM     23  C19 <0> d           2.782   9.504   1.527  0.00  0.00     0.001 A 
ATOM     24  C18 <0> d           2.268   8.258   1.237  0.00  0.00     0.018 A 
ENDBRANCH  15  18
ENDBRANCH   1  14
BRANCH   2  25
ATOM     25  C11 <0> d           0.722   2.380  -0.897  0.00  0.00     0.078 A 
ATOM     26  O2  <0> d          -0.599   2.106  -0.900  0.00  0.00    -0.316 OA
ATOM     27  C14 <0> d          -0.805   0.904  -1.459  0.00  0.00     0.050 A 
ATOM     28  C13 <0> d           0.384   0.381  -1.828  0.00  0.00     0.035 A 
ATOM     29  C15 <0> d          -2.147   0.245  -1.646  0.00  0.00     0.076 C 
ATOM     30  C12 <0> d           1.375   1.312  -1.476  0.00  0.00     0.040 A 
ENDBRANCH   2  25
TORSDOF 5
