REMARK  2 active torsions:
REMARK  status: ('A' for Active; 'I' for Inactive)
REMARK    1  A    between atoms: C6_6  and  N1_9 
REMARK    2  A    between atoms: C10_12  and  C13_19 
ROOT
ATOM      1  N1  <0> d           0.051  -2.798   2.394  0.00  0.00    -0.229 N 
ATOM      2  C9  <0> d          -1.112  -3.157   2.974  0.00  0.00     0.269 A 
ATOM      3  O1  <0> d          -2.174  -2.866   2.450  0.00  0.00    -0.267 OA
ATOM      4  C10 <0> d          -1.092  -3.868   4.186  0.00  0.00     0.101 A 
ATOM      5  C11 <0> d           0.109  -4.181   4.751  0.00  0.00     0.197 A 
ATOM      6  N2  <0> d           1.269  -3.797   4.128  0.00  0.00    -0.285 N 
ATOM      7  H1  <0> d           2.126  -4.017   4.526  0.00  0.00     0.172 HD
ATOM      8  C12 <0> d           1.226  -3.121   2.965  0.00  0.00     0.336 A 
ATOM      9  O2  <0> d           2.264  -2.793   2.424  0.00  0.00    -0.246 OA
ATOM     10  O3  <0> d           0.156  -4.863   5.915  0.00  0.00    -0.171 OA
ENDROOT
BRANCH   4  11
ATOM     11  C13 <0> d          -2.380  -4.279   4.853  0.00  0.00     0.280 C 
ATOM     12  N4  <0> d          -3.203  -5.046   3.905  0.00  0.00    -0.061 N 
ATOM     13  C23 <0> d          -4.532  -5.298   4.478  0.00  0.00     0.240 C 
ATOM     14  C24 <0> d          -2.544  -6.326   3.612  0.00  0.00     0.271 C 
ATOM     15  H24 <0> d          -3.305  -4.521   3.049  0.00  0.00     0.280 HD
ATOM     16  C22 <0> d          -5.344  -3.995   4.494  0.00  0.00     0.069 C 
ATOM     17  C15 <0> d          -4.483  -2.922   5.111  0.00  0.00    -0.019 A 
ATOM     18  C14 <0> d          -3.146  -3.049   5.276  0.00  0.00     0.053 A 
ATOM     19  C16 <0> d          -4.857  -1.624   5.626  0.00  0.00    -0.001 A 
ATOM     20  N3  <0> d          -2.644  -1.920   5.865  0.00  0.00    -0.356 N 
ATOM     21  C21 <0> d          -3.655  -1.030   6.093  0.00  0.00     0.043 A 
ATOM     22  H3  <0> d          -1.712  -1.774   6.088  0.00  0.00     0.166 HD
ATOM     23  C20 <0> d          -3.667   0.243   6.658  0.00  0.00     0.030 A 
ATOM     24  C19 <0> d          -4.891   0.884   6.737  0.00  0.00     0.002 A 
ATOM     25  C18 <0> d          -6.061   0.299   6.280  0.00  0.00     0.001 A 
ATOM     26  C17 <0> d          -6.080  -0.954   5.720  0.00  0.00     0.014 A 
ENDBRANCH   4  11
BRANCH   1  27
ATOM     27  C6  <0> d           0.036  -2.089   1.186  0.00  0.00     0.053 A 
ATOM     28  C5  <0> d           0.039  -2.773  -0.022  0.00  0.00     0.031 A 
ATOM     29  C4  <0> d           0.024  -2.071  -1.212  0.00  0.00     0.003 A 
ATOM     30  C3  <0> d           0.006  -0.688  -1.200  0.00  0.00     0.007 A 
ATOM     31  C2  <0> d           0.002  -0.004   0.002  0.00  0.00    -0.054 A 
ATOM     32  C1  <0> d          -0.018   1.503   0.010  0.00  0.00     0.049 C 
ATOM     33  C7  <0> d           0.023  -0.700   1.194  0.00  0.00    -0.029 A 
ATOM     34  C8  <0> d           0.026   0.046   2.504  0.00  0.00     0.051 C 
ENDBRANCH   1  27
TORSDOF 2
