REMARK  5 active torsions:
REMARK  status: ('A' for Active; 'I' for Inactive)
REMARK    1  A    between atoms: C7_8  and  C10_11 
REMARK    2  A    between atoms: C10_11  and  C11_12 
REMARK    3  A    between atoms: C11_12  and  N2_13 
REMARK    4  A    between atoms: N2_13  and  C12_14 
REMARK    5  A    between atoms: C14_18  and  C15_21 
ROOT
ATOM      1  C12 <0> d          -2.556  -2.594   6.310  0.00  0.00     0.720 A 
ATOM      2  N3  <0> d          -3.691  -2.765   5.659  0.00  0.00    -0.020 NA
ATOM      3  C13 <0> d          -4.857  -2.768   6.313  0.00  0.00     0.314 A 
ATOM      4  O1  <0> d          -5.904  -2.927   5.705  0.00  0.00    -0.263 OA
ATOM      5  C14 <0> d          -4.867  -2.579   7.773  0.00  0.00     0.158 A 
ATOM      6  N4  <0> d          -3.721  -2.411   8.396  0.00  0.00    -0.154 NA
ATOM      7  N5  <0> d          -2.532  -2.423   7.655  0.00  0.00    -0.107 N 
ATOM      8  H19 <0> d          -1.683  -2.303   8.109  0.00  0.00     0.208 HD
ENDROOT
BRANCH   1   9
ATOM      9  N2  <0> d          -1.377  -2.595   5.612  0.00  0.00    -0.223 N 
ATOM     10  H13 <0> d          -0.537  -2.475   6.081  0.00  0.00     0.177 HD
BRANCH   9  11
ATOM     11  C11 <0> d          -1.386  -2.779   4.159  0.00  0.00     0.142 C 
BRANCH  11  12
ATOM     12  C10 <0> d           0.050  -2.740   3.632  0.00  0.00     0.057 C 
BRANCH  12  13
ATOM     13  C7  <0> d           0.041  -2.929   2.137  0.00  0.00    -0.048 A 
ATOM     14  C6  <0> d           0.018  -4.242   1.386  0.00  0.00     0.155 A 
ATOM     15  N1  <0> d           0.017  -3.891  -0.038  0.00  0.00    -0.385 N 
ATOM     16  C5  <0> d           0.036  -2.585  -0.147  0.00  0.00     0.038 A 
ATOM     17  H18 <0> d           0.004  -4.520  -0.776  0.00  0.00     0.160 HD
ATOM     18  C4  <0> d           0.044  -1.729  -1.283  0.00  0.00     0.030 A 
ATOM     19  C8  <0> d           0.052  -1.959   1.194  0.00  0.00    -0.005 A 
ATOM     20  C3  <0> d           0.064  -0.388  -1.127  0.00  0.00     0.009 A 
ATOM     21  C2  <0> d           0.079   0.228   0.132  0.00  0.00    -0.061 A 
ATOM     22  C1  <0> d           0.101   1.732   0.213  0.00  0.00     0.048 C 
ATOM     23  C9  <0> d           0.079  -0.493   1.276  0.00  0.00     0.020 A 
ENDBRANCH  12  13
ENDBRANCH  11  12
ENDBRANCH   9  11
ENDBRANCH   1   9
BRANCH   5  24
ATOM     24  C15 <0> d          -6.143  -2.578   8.526  0.00  0.00     0.000 A 
ATOM     25  C20 <0> d          -6.254  -1.855   9.713  0.00  0.00     0.017 A 
ATOM     26  C19 <0> d          -7.446  -1.851  10.408  0.00  0.00     0.043 A 
ATOM     27  C18 <0> d          -8.529  -2.574   9.934  0.00  0.00     0.116 A 
ATOM     28  C17 <0> d          -8.422  -3.299   8.758  0.00  0.00     0.043 A 
ATOM     29  F1  <0> d          -9.693  -2.572  10.620  0.00  0.00    -0.206 F 
ATOM     30  C16 <0> d          -7.236  -3.304   8.053  0.00  0.00     0.017 A 
ENDBRANCH   5  24
TORSDOF 5
