REMARK  4 active torsions:
REMARK  status: ('A' for Active; 'I' for Inactive)
REMARK    1  A    between atoms: N1_4  and  C7_9 
REMARK    2  A    between atoms: C7_9  and  C8_10 
REMARK       I    between atoms: C8_10  and  N2_12 
REMARK    3  A    between atoms: N2_12  and  C10_14 
REMARK    4  A    between atoms: C13_17  and  N3_20 
ROOT
ATOM      1  C8  <0> d          -0.174  -3.308  -3.565  0.00  0.00     0.249 C 
ATOM      2  O2  <0> d          -0.708  -4.065  -2.782  0.00  0.00    -0.271 OA
ATOM      3  N2  <0> d          -0.164  -3.597  -4.882  0.00  0.00    -0.321 N 
ATOM      4  C9  <0> d           0.573  -2.740  -5.814  0.00  0.00     0.159 C 
ENDROOT
BRANCH   1   5
ATOM      5  C7  <0> d           0.477  -2.044  -3.066  0.00  0.00     0.337 C 
BRANCH   5   6
ATOM      6  N1  <0> d           0.200  -1.883  -1.633  0.00  0.00    -0.060 N 
ATOM      7  C3  <0> d          -1.245  -1.644  -1.453  0.00  0.00     0.266 C 
ATOM      8  C2  <0> d          -1.624  -2.014  -0.042  0.00  0.00     0.143 C 
ATOM      9  C1  <0> d          -3.034  -2.608  -0.044  0.00  0.00     0.041 C 
ATOM     10  O1  <0> d          -1.598  -0.870   0.834  0.00  0.00    -0.385 OA
ATOM     11  C6  <0> d          -0.501   0.046   0.642  0.00  0.00     0.170 C 
ATOM     12  C5  <0> d           0.806  -0.658   0.387  0.00  0.00     0.054 C 
ATOM     13  C4  <0> d           0.995  -0.841  -1.133  0.00  0.00     0.237 C 
ATOM     14  H24 <0> d           0.449  -2.738  -1.158  0.00  0.00     0.280 HD
ENDBRANCH   5   6
ENDBRANCH   1   5
BRANCH   3  15
ATOM     15  C10 <0> d          -0.857  -4.717  -5.359  0.00  0.00     0.036 A 
ATOM     16  C15 <0> d          -0.158  -5.788  -5.899  0.00  0.00     0.032 A 
ATOM     17  C14 <0> d          -0.841  -6.894  -6.364  0.00  0.00     0.031 A 
ATOM     18  C13 <0> d          -2.228  -6.931  -6.302  0.00  0.00     0.025 A 
ATOM     19  C12 <0> d          -2.928  -5.857  -5.766  0.00  0.00     0.031 A 
ATOM     20  C11 <0> d          -2.244  -4.754  -5.296  0.00  0.00     0.032 A 
BRANCH  18  21
ATOM     21  N3  <0> d          -2.921  -8.049  -6.778  0.00  0.00    -0.399 N 
ATOM     22  H22 <0> d          -3.889  -8.075  -6.734  0.00  0.00     0.156 HD
ATOM     23  H23 <0> d          -2.432  -8.799  -7.152  0.00  0.00     0.156 HD
ENDBRANCH  18  21
ENDBRANCH   3  15
TORSDOF 4
