REMARK  6 active torsions:
REMARK  status: ('A' for Active; 'I' for Inactive)
REMARK    1  A    between atoms: C2_2  and  C4_4 
REMARK    2  A    between atoms: C4_4  and  C5_5 
REMARK    3  A    between atoms: C4_4  and  N1_7 
REMARK    4  A    between atoms: C5_5  and  O1_6 
REMARK       I    between atoms: N1_7  and  C6_8 
REMARK    5  A    between atoms: C6_8  and  C7_10 
REMARK    6  A    between atoms: C9_13  and  C10_15 
ROOT
ATOM      1  C7  <0> d           1.450  -4.168  -0.373  0.00  0.00     0.131 A 
ATOM      2  C8  <0> d           2.180  -4.990   0.443  0.00  0.00     0.089 A 
ATOM      3  S1  <0> d           1.648  -6.517  -0.013  0.00  0.00    -0.082 SA
ATOM      4  C9  <0> d           0.542  -6.077  -1.196  0.00  0.00     0.106 A 
ATOM      5  N2  <0> d           0.602  -4.774  -1.210  0.00  0.00    -0.238 NA
ENDROOT
BRANCH   1   6
ATOM      6  C6  <0> d           1.586  -2.702  -0.326  0.00  0.00     0.271 C 
ATOM      7  N1  <0> d           0.843  -1.930  -1.143  0.00  0.00    -0.349 N 
ATOM      8  H13 <0> d           0.218  -2.340  -1.762  0.00  0.00     0.163 HD
ATOM      9  O2  <0> d           2.369  -2.189   0.450  0.00  0.00    -0.266 OA
BRANCH   7  10
ATOM     10  C4  <0> d           0.978  -0.472  -1.097  0.00  0.00     0.111 C 
BRANCH  10  11
ATOM     11  C2  <0> d           0.081   0.088   0.008  0.00  0.00     0.002 C 
ATOM     12  C1  <0> d           0.485  -0.522   1.352  0.00  0.00     0.011 C 
ATOM     13  C3  <0> d           0.238   1.609   0.071  0.00  0.00     0.011 C 
ENDBRANCH  10  11
BRANCH  10  14
ATOM     14  C5  <0> d           0.561   0.122  -2.444  0.00  0.00     0.189 C 
BRANCH  14  15
ATOM     15  O1  <0> d          -0.831  -0.118  -2.659  0.00  0.00    -0.399 OA
ATOM     16  H12 <0> d          -1.166   0.232  -3.496  0.00  0.00     0.209 HD
ENDBRANCH  14  15
ENDBRANCH  10  14
ENDBRANCH   7  10
ENDBRANCH   1   6
BRANCH   4  17
ATOM     17  C10 <0> d          -0.324  -6.977  -2.040  0.00  0.00     0.244 C 
ATOM     18  N3  <0> d          -0.917  -8.047  -1.210  0.00  0.00    -0.065 N 
ATOM     19  C13 <0> d          -0.954  -9.290  -2.005  0.00  0.00     0.233 C 
ATOM     20  H21 <0> d          -0.354  -8.189  -0.385  0.00  0.00     0.278 HD
ATOM     21  H22 <0> d          -1.854  -7.787  -0.940  0.00  0.00     0.278 HD
ATOM     22  C12 <0> d          -0.335  -8.971  -3.382  0.00  0.00     0.030 C 
ATOM     23  C11 <0> d           0.536  -7.720  -3.092  0.00  0.00     0.041 C 
ENDBRANCH   4  17
TORSDOF 6
