REMARK  3 active torsions:
REMARK  status: ('A' for Active; 'I' for Inactive)
REMARK    1  A    between atoms: C2_2  and  C3_3 
REMARK    2  A    between atoms: C2_2  and  N2_18 
REMARK    3  A    between atoms: C6_6  and  N1_9 
ROOT
ATOM      1  C3  <0> d           0.708  -0.490  -1.238  0.00  0.00    -0.028 A 
ATOM      2  C4  <0> d          -0.007  -1.134  -2.230  0.00  0.00     0.011 A 
ATOM      3  C5  <0> d           0.636  -1.581  -3.368  0.00  0.00     0.031 A 
ATOM      4  C6  <0> d           2.003  -1.382  -3.514  0.00  0.00     0.045 A 
ATOM      5  C7  <0> d           2.718  -0.734  -2.516  0.00  0.00     0.031 A 
ATOM      6  C8  <0> d           2.068  -0.286  -1.383  0.00  0.00     0.011 A 
ENDROOT
BRANCH   4   7
ATOM      7  N1  <0> d           2.659  -1.835  -4.668  0.00  0.00    -0.252 N 
ATOM      8  C14 <0> d           2.677  -1.026  -5.715  0.00  0.00     0.231 C 
ATOM      9  C13 <0> d           3.122  -1.429  -7.092  0.00  0.00     0.104 C 
ATOM     10  O2  <0> d           2.314   0.119  -5.552  0.00  0.00    -0.273 OA
ATOM     11  C12 <0> d           2.525  -2.796  -7.454  0.00  0.00     0.010 C 
ATOM     12  C11 <0> d           3.451  -3.891  -6.949  0.00  0.00     0.010 C 
ATOM     13  C10 <0> d           4.190  -3.498  -5.685  0.00  0.00     0.104 C 
ATOM     14  C9  <0> d           3.216  -3.059  -4.624  0.00  0.00     0.231 C 
ATOM     15  O1  <0> d           2.930  -3.816  -3.721  0.00  0.00    -0.273 OA
ENDBRANCH   4   7
BRANCH   1  16
ATOM     16  C2  <0> d           0.003  -0.004   0.003  0.00  0.00     0.214 C 
ATOM     17  C1  <0> d          -0.707   1.317  -0.299  0.00  0.00     0.045 C 
BRANCH  16  18
ATOM     18  N2  <0> d          -0.985  -1.005   0.428  0.00  0.00    -0.071 N 
ATOM     19  C15 <0> d          -1.587  -0.588   1.702  0.00  0.00     0.267 C 
ATOM     20  H17 <0> d          -1.705  -1.086  -0.274  0.00  0.00     0.277 HD
ATOM     21  H21 <0> d          -0.529  -1.897   0.548  0.00  0.00     0.277 HD
ENDBRANCH  16  18
ENDBRANCH   1  16
TORSDOF 3
