REMARK  7 active torsions:
REMARK  status: ('A' for Active; 'I' for Inactive)
REMARK    1  A    between atoms: C5_6  and  C6_7 
REMARK    2  A    between atoms: C6_7  and  C7_8 
REMARK    3  A    between atoms: C6_7  and  N4_30 
REMARK    4  A    between atoms: C7_8  and  N2_9 
REMARK       I    between atoms: N2_9  and  C8_10 
REMARK    5  A    between atoms: C8_10  and  C9_12 
REMARK       I    between atoms: C9_12  and  N3_14 
REMARK    6  A    between atoms: N3_14  and  C10_15 
REMARK    7  A    between atoms: C10_15  and  C11_16 
ROOT
ATOM      1  N2  <0> d          -1.909   5.697   1.354  0.00  0.00    -0.351 N 
ATOM      2  C8  <0> d          -1.821   7.031   1.184  0.00  0.00     0.309 C 
ATOM      3  O1  <0> d          -1.257   7.712   2.014  0.00  0.00    -0.262 OA
ATOM      4  H10 <0> d          -2.360   5.152   0.690  0.00  0.00     0.162 HD
ENDROOT
BRANCH   1   5
ATOM      5  C7  <0> d          -1.324   5.069   2.542  0.00  0.00     0.162 C 
BRANCH   5   6
ATOM      6  C6  <0> d          -1.450   3.549   2.429  0.00  0.00     0.255 C 
BRANCH   6   7
ATOM      7  C5  <0> d          -0.735   2.899   3.586  0.00  0.00     0.043 A 
ATOM      8  N1  <0> d          -1.277   2.001   4.458  0.00  0.00    -0.363 N 
ATOM      9  C1  <0> d          -2.655   1.506   4.426  0.00  0.00     0.155 C 
ATOM     10  C2  <0> d          -0.323   1.638   5.362  0.00  0.00     0.090 A 
ATOM     11  C3  <0> d           0.811   2.308   5.070  0.00  0.00     0.019 A 
ATOM     12  C4  <0> d           0.548   3.110   3.942  0.00  0.00     0.029 A 
ENDBRANCH   6   7
BRANCH   6  13
ATOM     13  N4  <0> d          -0.862   3.110   1.146  0.00  0.00    -0.056 N 
ATOM     14  C17 <0> d           0.533   3.587   1.039  0.00  0.00     0.262 C 
ATOM     15  C18 <0> d           1.101   3.146  -0.313  0.00  0.00     0.195 C 
ATOM     16  O3  <0> d           1.017   1.723  -0.419  0.00  0.00    -0.388 OA
ATOM     17  C19 <0> d          -0.315   1.214  -0.300  0.00  0.00     0.195 C 
ATOM     18  C20 <0> d          -0.897   1.634   1.052  0.00  0.00     0.262 C 
ATOM     19  H26 <0> d          -1.410   3.506   0.374  0.00  0.00     0.281 HD
ENDBRANCH   6  13
ENDBRANCH   5   6
ENDBRANCH   1   5
BRANCH   2  20
ATOM     20  C9  <0> d          -2.419   7.671  -0.028  0.00  0.00     0.309 C 
ATOM     21  O2  <0> d          -2.983   6.989  -0.858  0.00  0.00    -0.262 OA
ATOM     22  N3  <0> d          -2.331   9.005  -0.198  0.00  0.00    -0.349 N 
ATOM     23  H11 <0> d          -1.880   9.550   0.466  0.00  0.00     0.163 HD
BRANCH  22  24
ATOM     24  C10 <0> d          -2.916   9.632  -1.385  0.00  0.00     0.163 C 
BRANCH  24  25
ATOM     25  C11 <0> d          -2.682  11.120  -1.334  0.00  0.00    -0.019 A 
ATOM     26  C16 <0> d          -1.455  11.640  -1.707  0.00  0.00     0.042 A 
ATOM     27  C15 <0> d          -1.241  13.007  -1.660  0.00  0.00     0.024 A 
ATOM     28 Cl1  <0> d          -0.185  10.580  -2.232  0.00  0.00    -0.084 Cl
ATOM     29  C14 <0> d          -2.253  13.850  -1.242  0.00  0.00     0.002 A 
ATOM     30  C13 <0> d          -3.478  13.330  -0.871  0.00  0.00     0.001 A 
ATOM     31  C12 <0> d          -3.695  11.965  -0.921  0.00  0.00     0.010 A 
ENDBRANCH  24  25
ENDBRANCH  22  24
ENDBRANCH   2  20
TORSDOF 7
