REMARK  3 active torsions:
REMARK  status: ('A' for Active; 'I' for Inactive)
REMARK    1  A    between atoms: C5_6  and  C6_7 
REMARK       I    between atoms: C6_7  and  N1_9 
REMARK    2  A    between atoms: N1_9  and  C7_10 
REMARK    3  A    between atoms: C7_10  and  C9_12 
ROOT
ATOM      1  C7  <0> d           0.060  -0.883   4.882  0.00  0.00     0.152 C 
ATOM      2  C8  <0> d          -1.376  -0.633   5.346  0.00  0.00     0.040 C 
ENDROOT
BRANCH   1   3
ATOM      3  N1  <0> d           0.053  -1.313   3.482  0.00  0.00    -0.344 N 
ATOM      4  C6  <0> d           0.031  -0.395   2.495  0.00  0.00     0.276 C 
ATOM      5  O2  <0> d           0.018   0.791   2.768  0.00  0.00    -0.265 OA
ATOM      6  H7  <0> d           0.064  -2.258   3.264  0.00  0.00     0.163 HD
BRANCH   4   7
ATOM      7  C5  <0> d           0.024  -0.825   1.093  0.00  0.00     0.148 A 
ATOM      8  C2  <0> d           0.002  -0.004   0.002  0.00  0.00    -0.021 A 
ATOM      9  C1  <0> d          -0.018   1.503   0.010  0.00  0.00     0.051 C 
ATOM     10  C3  <0> d           0.009  -0.836  -1.129  0.00  0.00     0.034 A 
ATOM     11  C4  <0> d           0.029  -2.111  -0.684  0.00  0.00     0.143 A 
ATOM     12  O1  <0> d           0.035  -2.101   0.655  0.00  0.00    -0.317 OA
ENDBRANCH   4   7
ENDBRANCH   1   3
BRANCH   1  13
ATOM     13  C9  <0> d           0.684  -1.958   5.734  0.00  0.00     0.152 A 
ATOM     14  N4  <0> d           1.599  -1.778   6.712  0.00  0.00    -0.319 N 
ATOM     15  C10 <0> d           1.884  -3.010   7.196  0.00  0.00     0.130 A 
ATOM     16  C11 <0> d           2.161  -0.509   7.175  0.00  0.00     0.132 C 
ATOM     17  N3  <0> d           1.158  -3.865   6.534  0.00  0.00    -0.135 NA
ATOM     18  C15 <0> d           2.873  -3.310   8.292  0.00  0.00     0.080 C 
ATOM     19  N2  <0> d           0.445  -3.241   5.662  0.00  0.00    -0.133 NA
ATOM     20  C14 <0> d           2.646  -2.345   9.453  0.00  0.00     0.008 C 
ATOM     21  C13 <0> d           3.461  -1.074   9.235  0.00  0.00     0.002 C 
ATOM     22  C12 <0> d           3.561  -0.751   7.745  0.00  0.00     0.020 C 
ENDBRANCH   1  13
TORSDOF 3
