REMARK  4 active torsions:
REMARK  status: ('A' for Active; 'I' for Inactive)
REMARK    1  A    between atoms: C5_5  and  C8_8 
REMARK    2  A    between atoms: C8_8  and  C9_10 
REMARK    3  A    between atoms: C9_10  and  C10_11 
REMARK    4  A    between atoms: C12_15  and  N2_17 
ROOT
ATOM      1  C9  <0> d           0.075  -5.006   1.280  0.00  0.00     0.109 C 
ENDROOT
BRANCH   1   2
ATOM      2  C8  <0> d           0.058  -4.245  -0.021  0.00  0.00     0.161 C 
ATOM      3  O1  <0> d           0.060  -4.846  -1.075  0.00  0.00    -0.292 OA
BRANCH   2   4
ATOM      4  C5  <0> d           0.039  -2.774  -0.013  0.00  0.00     0.010 A 
ATOM      5  C4  <0> d           0.024  -2.064  -1.218  0.00  0.00     0.015 A 
ATOM      6  C3  <0> d           0.006  -0.686  -1.202  0.00  0.00     0.007 A 
ATOM      7  C2  <0> d           0.002  -0.004   0.002  0.00  0.00    -0.062 A 
ATOM      8  C1  <0> d          -0.018   1.503   0.010  0.00  0.00     0.048 C 
ATOM      9  C7  <0> d           0.023  -0.699   1.199  0.00  0.00     0.007 A 
ATOM     10  C6  <0> d           0.036  -2.078   1.200  0.00  0.00     0.015 A 
ENDBRANCH   2   4
ENDBRANCH   1   2
BRANCH   1  11
ATOM     11  C10 <0> d           0.093  -6.508   0.992  0.00  0.00     0.157 A 
ATOM     12  S1  <0> d          -1.520  -7.084   0.318  0.00  0.00    -0.077 SA
ATOM     13  C12 <0> d          -1.926  -8.143   1.564  0.00  0.00     0.164 A 
ATOM     14  N1  <0> d          -0.930  -8.081   2.429  0.00  0.00    -0.189 NA
ATOM     15  C11 <0> d           0.126  -7.322   2.280  0.00  0.00     0.260 A 
ATOM     16  O2  <0> d           1.037  -7.272   3.084  0.00  0.00    -0.270 OA
BRANCH  13  17
ATOM     17  N2  <0> d          -3.050  -8.909   1.658  0.00  0.00    -0.378 N 
ATOM     18  H11 <0> d          -3.180  -9.488   2.426  0.00  0.00     0.158 HD
ATOM     19  H12 <0> d          -3.720  -8.876   0.958  0.00  0.00     0.158 HD
ENDBRANCH  13  17
ENDBRANCH   1  11
TORSDOF 4
