REMARK  4 active torsions:
REMARK  status: ('A' for Active; 'I' for Inactive)
REMARK    1  A    between atoms: C5_6  and  N4_17 
REMARK    2  A    between atoms: C6_8  and  C7_10 
REMARK    3  A    between atoms: C7_10  and  N3_11 
REMARK    4  A    between atoms: N4_17  and  N5_18 
ROOT
ATOM      1  C1  <0> d          -0.018   1.448   0.010  0.00  0.00     0.025 A 
ATOM      2  C2  <0> d           1.144   2.119   0.003  0.00  0.00     0.053 A 
ATOM      3  S1  <0> d           2.371   0.826  -0.016  0.00  0.00    -0.081 SA
ATOM      4  C3  <0> d           1.291  -0.580  -0.013  0.00  0.00     0.113 A 
ATOM      5  C4  <0> d           0.002  -0.004   0.002  0.00  0.00     0.047 A 
ATOM      6  C5  <0> d          -1.078  -0.928   0.007  0.00  0.00     0.152 A 
ATOM      7  N1  <0> d          -0.818  -2.226  -0.003  0.00  0.00    -0.212 NA
ATOM      8  C6  <0> d           0.417  -2.695  -0.017  0.00  0.00     0.155 A 
ATOM      9  N2  <0> d           1.460  -1.888  -0.022  0.00  0.00    -0.224 NA
ENDROOT
BRANCH   8  10
ATOM     10  C7  <0> d           0.639  -4.186  -0.028  0.00  0.00     0.315 C 
BRANCH  10  11
ATOM     11  N3  <0> d           0.698  -4.662  -1.416  0.00  0.00    -0.063 N 
ATOM     12  C11 <0> d           1.032  -6.088  -1.420  0.00  0.00     0.245 C 
ATOM     13  C10 <0> d           1.462  -6.518  -2.828  0.00  0.00     0.101 C 
ATOM     14  S2  <0> d           0.058  -6.262  -3.957  0.00  0.00    -0.166 SA
ATOM     15  C9  <0> d          -0.449  -4.554  -3.583  0.00  0.00     0.101 C 
ATOM     16  C8  <0> d          -0.593  -4.418  -2.062  0.00  0.00     0.245 C 
ATOM     17  H16 <0> d           1.415  -4.153  -1.910  0.00  0.00     0.280 HD
ENDBRANCH  10  11
ENDBRANCH   8  10
BRANCH   6  18
ATOM     18  N4  <0> d          -2.386  -0.477   0.022  0.00  0.00    -0.307 N 
ATOM     19  H13 <0> d          -2.570   0.475   0.030  0.00  0.00     0.182 HD
BRANCH  18  20
ATOM     20  N5  <0> d          -3.417  -1.373   0.027  0.00  0.00    -0.248 NA
ATOM     21  H14 <0> d          -3.338  -2.012   0.804  0.00  0.00     0.143 HD
ATOM     22  H15 <0> d          -4.308  -0.898   0.038  0.00  0.00     0.143 HD
ENDBRANCH  18  20
ENDBRANCH   6  18
TORSDOF 4
