REMARK  5 active torsions:
REMARK  status: ('A' for Active; 'I' for Inactive)
REMARK    1  A    between atoms: C2_2  and  C3_3 
REMARK    2  A    between atoms: C3_3  and  C4_4 
REMARK    3  A    between atoms: C3_3  and  N3_23 
REMARK    4  A    between atoms: N1_10  and  C12_15 
REMARK    5  A    between atoms: C12_15  and  C13_16 
ROOT
ATOM      1  C4  <0> d           3.568   2.190  -0.787  0.00  0.00    -0.026 A 
ATOM      2  C5  <0> d           3.650   3.529  -0.451  0.00  0.00     0.012 A 
ATOM      3  C6  <0> d           2.542   4.192   0.043  0.00  0.00     0.040 A 
ATOM      4  C7  <0> d           1.346   3.513   0.202  0.00  0.00     0.096 A 
ATOM      5  C8  <0> d           1.264   2.164  -0.137  0.00  0.00     0.071 A 
ATOM      6  C9  <0> d           2.377   1.505  -0.631  0.00  0.00     0.041 A 
ATOM      7  N1  <0> d           0.046   1.488   0.030  0.00  0.00    -0.309 N 
ATOM      8  C10 <0> d          -1.084   2.208   0.201  0.00  0.00     0.248 C 
ATOM      9  O1  <0> d          -2.144   1.645   0.372  0.00  0.00    -0.271 OA
ATOM     10  C11 <0> d          -1.021   3.714   0.184  0.00  0.00     0.279 C 
ATOM     11  O2  <0> d           0.246   4.150   0.685  0.00  0.00    -0.340 OA
ENDROOT
BRANCH   7  12
ATOM     12  C12 <0> d           0.000   0.024   0.013  0.00  0.00     0.175 C 
BRANCH  12  13
ATOM     13  C13 <0> d           0.145  -0.500   1.418  0.00  0.00     0.018 A 
ATOM     14  C15 <0> d           1.286  -0.690   2.123  0.00  0.00     0.085 A 
ATOM     15  O3  <0> d           0.917  -1.168   3.320  0.00  0.00    -0.217 OA
ATOM     16  C16 <0> d           2.692  -0.416   1.656  0.00  0.00     0.079 C 
ATOM     17  N2  <0> d          -0.284  -1.287   3.400  0.00  0.00    -0.133 NA
ATOM     18  C14 <0> d          -0.877  -0.913   2.303  0.00  0.00     0.068 A 
ATOM     19  C17 <0> d          -2.359  -0.918   2.031  0.00  0.00     0.073 C 
ENDBRANCH  12  13
ENDBRANCH   7  12
BRANCH   1  20
ATOM     20  C3  <0> d           4.781   1.475  -1.325  0.00  0.00     0.216 C 
BRANCH  20  21
ATOM     21  C2  <0> d           4.947   1.800  -2.811  0.00  0.00     0.033 C 
ATOM     22  C1  <0> d           6.103   0.979  -3.386  0.00  0.00     0.007 C 
ENDBRANCH  20  21
BRANCH  20  23
ATOM     23  N3  <0> d           5.975   1.915  -0.591  0.00  0.00    -0.071 N 
ATOM     24  H20 <0> d           5.856   1.682   0.477  0.00  0.00     0.275 HD
ATOM     25  H21 <0> d           6.103   3.001  -0.717  0.00  0.00     0.275 HD
ATOM     26  H22 <0> d           6.860   1.394  -0.984  0.00  0.00     0.275 HD
ENDBRANCH  20  23
ENDBRANCH   1  20
TORSDOF 5
