REMARK  4 active torsions:
REMARK  status: ('A' for Active; 'I' for Inactive)
REMARK    1  A    between atoms: C7_7  and  C11_13 
REMARK    2  A    between atoms: C11_13  and  N2_14 
REMARK    3  A    between atoms: C15_18  and  C16_19 
REMARK    4  A    between atoms: C16_19  and  O1_20 
ROOT
ATOM      1  C1  <0> d           0.276   1.212  -1.270  0.00  0.00     0.048 C 
ATOM      2  C2  <0> d           0.245  -0.280  -1.058  0.00  0.00    -0.060 A 
ATOM      3  C3  <0> d           0.216  -1.129  -2.163  0.00  0.00     0.007 A 
ATOM      4  C4  <0> d           0.187  -2.481  -2.004  0.00  0.00     0.014 A 
ATOM      5  C5  <0> d           0.187  -3.028  -0.711  0.00  0.00    -0.007 A 
ATOM      6  C6  <0> d           0.158  -4.421  -0.505  0.00  0.00     0.026 A 
ATOM      7  C7  <0> d           0.160  -4.882   0.780  0.00  0.00     0.009 A 
ATOM      8  C8  <0> d           0.189  -3.979   1.844  0.00  0.00     0.134 A 
ATOM      9  N1  <0> d           0.216  -2.683   1.647  0.00  0.00    -0.235 NA
ATOM     10  C9  <0> d           0.216  -2.167   0.413  0.00  0.00     0.069 A 
ATOM     11  C10 <0> d           0.251  -0.776   0.209  0.00  0.00     0.039 A 
ATOM     12 Cl1  <0> d           0.191  -4.588   3.469  0.00  0.00    -0.062 Cl
ENDROOT
BRANCH   7  13
ATOM     13  C11 <0> d           0.129  -6.364   1.049  0.00  0.00     0.277 C 
BRANCH  13  14
ATOM     14  N2  <0> d           1.461  -6.812   1.477  0.00  0.00    -0.061 N 
ATOM     15  C15 <0> d           1.410  -8.238   1.850  0.00  0.00     0.212 C 
ATOM     16  C14 <0> d           2.405  -8.985   0.937  0.00  0.00     0.037 C 
ATOM     17  C13 <0> d           3.378  -7.863   0.488  0.00  0.00     0.030 C 
ATOM     18  C12 <0> d           2.421  -6.651   0.364  0.00  0.00     0.236 C 
ATOM     19  H20 <0> d           1.766  -6.265   2.268  0.00  0.00     0.280 HD
BRANCH  15  20
ATOM     20  C16 <0> d          -0.004  -8.781   1.633  0.00  0.00     0.197 C 
BRANCH  20  21
ATOM     21  O1  <0> d          -0.023 -10.183   1.911  0.00  0.00    -0.399 OA
ATOM     22  H19 <0> d          -0.890 -10.595   1.794  0.00  0.00     0.209 HD
ENDBRANCH  20  21
ENDBRANCH  15  20
ENDBRANCH  13  14
ENDBRANCH   7  13
TORSDOF 4
