REMARK  8 active torsions:
REMARK  status: ('A' for Active; 'I' for Inactive)
REMARK    1  A    between atoms: C3_3  and  C10_11 
REMARK    2  A    between atoms: C10_11  and  C11_13 
REMARK    3  A    between atoms: C11_13  and  S1_14 
REMARK    4  A    between atoms: S1_14  and  C12_15 
REMARK    5  A    between atoms: C13_18  and  N4_20 
REMARK    6  A    between atoms: N4_20  and  C14_21 
REMARK    7  A    between atoms: C14_21  and  C15_22 
REMARK    8  A    between atoms: C15_22  and  O2_23 
ROOT
ATOM      1  C11 <0> d           1.223  -0.869  -3.678  0.00  0.00     0.165 C 
ENDROOT
BRANCH   1   2
ATOM      2  C10 <0> d           0.379  -0.286  -2.575  0.00  0.00     0.168 C 
ATOM      3  O1  <0> d          -0.602   0.376  -2.847  0.00  0.00    -0.292 OA
BRANCH   2   4
ATOM      4  C3  <0> d           0.728  -0.508  -1.226  0.00  0.00     0.023 A 
ATOM      5  C2  <0> d           0.002  -0.004   0.002  0.00  0.00     0.115 A 
ATOM      6  C1  <0> d          -0.019   1.526   0.010  0.00  0.00     0.037 C 
ATOM      7  N1  <0> d           0.756  -0.505   1.155  0.00  0.00    -0.381 N 
ATOM      8  C9  <0> d           1.776  -1.199   0.733  0.00  0.00     0.039 A 
ATOM      9  H21 <0> d           0.532  -0.344   2.085  0.00  0.00     0.160 HD
ATOM     10  C4  <0> d           1.805  -1.234  -0.750  0.00  0.00     0.002 A 
ATOM     11  C8  <0> d           2.842  -1.915   1.453  0.00  0.00     0.030 A 
ATOM     12  C5  <0> d           2.845  -1.946  -1.391  0.00  0.00     0.014 A 
ATOM     13  C6  <0> d           3.789  -2.580  -0.660  0.00  0.00     0.001 A 
ATOM     14  C7  <0> d           3.790  -2.566   0.744  0.00  0.00     0.002 A 
ENDBRANCH   2   4
ENDBRANCH   1   2
BRANCH   1  15
ATOM     15  S1  <0> d           0.520  -0.409  -5.286  0.00  0.00    -0.094 SA
BRANCH  15  16
ATOM     16  C12 <0> d           1.606  -1.157  -6.455  0.00  0.00     0.154 A 
ATOM     17  S2  <0> d           1.506  -1.107  -8.238  0.00  0.00    -0.044 SA
ATOM     18  C13 <0> d           2.999  -2.120  -8.599  0.00  0.00     0.405 A 
ATOM     19  N3  <0> d           3.443  -2.416  -7.218  0.00  0.00    -0.271 N 
ATOM     20  N2  <0> d           2.660  -1.876  -6.222  0.00  0.00    -0.163 NA
ATOM     21  H12 <0> d           4.229  -2.951  -7.028  0.00  0.00     0.185 HD
BRANCH  18  22
ATOM     22  N4  <0> d           4.011  -1.349  -9.332  0.00  0.00     0.120 N 
ATOM     23  H13 <0> d           4.068  -0.404  -8.984  0.00  0.00     0.319 HD
BRANCH  22  24
ATOM     24  C14 <0> d           3.740  -1.362 -10.776  0.00  0.00     0.299 C 
BRANCH  24  25
ATOM     25  C15 <0> d           4.813  -0.550 -11.504  0.00  0.00     0.197 C 
BRANCH  25  26
ATOM     26  O2  <0> d           6.081  -1.191 -11.352  0.00  0.00    -0.394 OA
ATOM     27  C16 <0> d           7.158  -0.510 -11.998  0.00  0.00     0.201 C 
ENDBRANCH  25  26
ENDBRANCH  24  25
ENDBRANCH  22  24
ENDBRANCH  18  22
ENDBRANCH  15  16
ENDBRANCH   1  15
TORSDOF 8
