REMARK  4 active torsions:
REMARK  status: ('A' for Active; 'I' for Inactive)
REMARK    1  A    between atoms: O1_2  and  C2_3 
REMARK    2  A    between atoms: C4_5  and  C9_12 
REMARK    3  A    between atoms: C7_8  and  O2_9 
REMARK    4  A    between atoms: C10_13  and  N2_19 
ROOT
ATOM      1  C2  <0> d           0.606  -0.608  -1.056  0.00  0.00     0.103 A 
ATOM      2  C3  <0> d           1.173   0.159  -2.062  0.00  0.00     0.049 A 
ATOM      3  C4  <0> d           1.786  -0.455  -3.138  0.00  0.00    -0.029 A 
ATOM      4  C5  <0> d           1.836  -1.835  -3.214  0.00  0.00     0.031 A 
ATOM      5  C6  <0> d           1.273  -2.606  -2.213  0.00  0.00     0.047 A 
ATOM      6  C7  <0> d           0.662  -1.996  -1.129  0.00  0.00     0.118 A 
ATOM      7 Br1  <0> d           1.342  -4.493  -2.321  0.00  0.00    -0.048 Br
ENDROOT
BRANCH   3   8
ATOM      8  C9  <0> d           2.401   0.380  -4.231  0.00  0.00     0.147 C 
ATOM      9  N1  <0> d           2.112  -0.228  -5.523  0.00  0.00    -0.350 N 
ATOM     10  C13 <0> d           2.983  -0.309  -6.526  0.00  0.00     0.218 C 
ATOM     11  H15 <0> d           1.226  -0.597  -5.664  0.00  0.00     0.163 HD
ATOM     12  C12 <0> d           4.403   0.172  -6.429  0.00  0.00     0.105 C 
ATOM     13  O3  <0> d           2.614  -0.799  -7.572  0.00  0.00    -0.274 OA
ATOM     14  C11 <0> d           4.550   1.125  -5.240  0.00  0.00     0.043 C 
ATOM     15  C10 <0> d           3.912   0.468  -4.011  0.00  0.00     0.183 C 
BRANCH  15  16
ATOM     16  N2  <0> d           4.190   1.273  -2.819  0.00  0.00    -0.148 N 
ATOM     17  O4  <0> d           4.786   0.788  -1.887  0.00  0.00    -0.536 OA
ATOM     18  O5  <0> d           3.822   2.424  -2.768  0.00  0.00    -0.536 OA
ENDBRANCH  15  16
ENDBRANCH   3   8
BRANCH   1  19
ATOM     19  O1  <0> d           0.002  -0.004   0.002  0.00  0.00    -0.353 OA
ATOM     20  C1  <0> d          -0.017   1.425   0.010  0.00  0.00     0.210 C 
ENDBRANCH   1  19
BRANCH   6  21
ATOM     21  O2  <0> d           0.112  -2.752  -0.141  0.00  0.00    -0.352 OA
ATOM     22  C8  <0> d          -1.259  -3.125  -0.296  0.00  0.00     0.210 C 
ENDBRANCH   6  21
TORSDOF 4
