REMARK  4 active torsions:
REMARK  status: ('A' for Active; 'I' for Inactive)
REMARK    1  A    between atoms: C6_7  and  C9_11 
REMARK    2  A    between atoms: C9_11  and  N3_12 
REMARK       I    between atoms: N3_12  and  C10_13 
REMARK    3  A    between atoms: C10_13  and  C11_15 
REMARK       I    between atoms: N4_17  and  C19_25 
REMARK    4  A    between atoms: C19_25  and  C20_27 
ROOT
ATOM      1  C11 <0> d           3.751  -7.523   3.171  0.00  0.00     0.106 C 
ATOM      2  C12 <0> d           4.314  -6.361   4.021  0.00  0.00     0.140 C 
ATOM      3  N4  <0> d           4.262  -6.859   5.416  0.00  0.00    -0.350 N 
ATOM      4  C13 <0> d           4.659  -8.283   5.314  0.00  0.00     0.136 C 
ATOM      5  C14 <0> d           3.982  -8.783   4.022  0.00  0.00    -0.007 C 
ATOM      6  C15 <0> d           2.650  -9.451   4.349  0.00  0.00     0.039 C 
ATOM      7  C16 <0> d           2.910 -10.732   5.147  0.00  0.00     0.233 C 
ATOM      8  N5  <0> d           3.755 -11.638   4.360  0.00  0.00    -0.075 N 
ATOM      9  C17 <0> d           5.068 -11.024   4.129  0.00  0.00     0.233 C 
ATOM     10  C18 <0> d           4.900  -9.756   3.288  0.00  0.00     0.039 C 
ATOM     11  C19 <0> d           3.929  -6.171   6.526  0.00  0.00     0.228 C 
ATOM     12  O2  <0> d           3.549  -5.022   6.437  0.00  0.00    -0.273 OA
ATOM     13  H20 <0> d           3.874 -12.505   4.862  0.00  0.00     0.277 HD
ATOM     14  H38 <0> d           3.311 -11.824   3.473  0.00  0.00     0.277 HD
ENDROOT
BRANCH   1  15
ATOM     15  C10 <0> d           2.279  -7.323   2.918  0.00  0.00     0.224 C 
ATOM     16  N3  <0> d           1.716  -7.809   1.795  0.00  0.00    -0.355 N 
ATOM     17  H11 <0> d           2.258  -8.288   1.149  0.00  0.00     0.162 HD
ATOM     18  O1  <0> d           1.601  -6.724   3.726  0.00  0.00    -0.273 OA
BRANCH  16  19
ATOM     19  C9  <0> d           0.285  -7.615   1.549  0.00  0.00     0.181 C 
BRANCH  19  20
ATOM     20  C6  <0> d          -0.090  -8.249   0.235  0.00  0.00     0.044 A 
ATOM     21  N1  <0> d          -0.408  -9.533   0.052  0.00  0.00    -0.343 N 
ATOM     22  C5  <0> d          -0.681  -9.736  -1.229  0.00  0.00     0.111 A 
ATOM     23  H39 <0> d          -0.435 -10.210   0.747  0.00  0.00     0.167 HD
ATOM     24  C4  <0> d          -1.065 -10.886  -1.947  0.00  0.00     0.050 A 
ATOM     25  N2  <0> d          -0.533  -8.543  -1.888  0.00  0.00    -0.317 N 
ATOM     26  C3  <0> d          -1.284 -10.793  -3.286  0.00  0.00     0.012 A 
ATOM     27  C2  <0> d          -1.124  -9.557  -3.933  0.00  0.00    -0.046 A 
ATOM     28  C1  <0> d          -1.364  -9.450  -5.417  0.00  0.00     0.049 C 
ATOM     29  C8  <0> d          -0.750  -8.465  -3.233  0.00  0.00     0.104 A 
ATOM     30  C7  <0> d          -0.161  -7.614  -0.955  0.00  0.00     0.124 A 
ENDBRANCH  19  20
ENDBRANCH  16  19
ENDBRANCH   1  15
BRANCH  11  31
ATOM     31  C20 <0> d           4.029  -6.828   7.878  0.00  0.00     0.037 C 
ATOM     32  C25 <0> d           3.759  -5.792   8.971  0.00  0.00     0.019 C 
ATOM     33  C24 <0> d           2.354  -5.213   8.788  0.00  0.00     0.001 C 
ATOM     34  C23 <0> d           1.322  -6.338   8.885  0.00  0.00     0.000 C 
ATOM     35  C22 <0> d           1.593  -7.375   7.793  0.00  0.00     0.001 C 
ATOM     36  C21 <0> d           2.997  -7.954   7.976  0.00  0.00     0.019 C 
ATOM     37  C26 <0> d           5.434  -7.407   8.061  0.00  0.00     0.025 C 
ENDBRANCH  11  31
TORSDOF 4
