REMARK  2 active torsions:
REMARK  status: ('A' for Active; 'I' for Inactive)
REMARK    1  A    between atoms: C4_7  and  C13_18 
REMARK    2  A    between atoms: C6_9  and  C7_11 
ROOT
ATOM      1  C1  <0> d          -0.018   1.503   0.010  0.00  0.00     0.096 C 
ATOM      2  C2  <0> d           0.002  -0.004   0.002  0.00  0.00     0.162 A 
ATOM      3  N1  <0> d           0.008  -0.768  -1.091  0.00  0.00    -0.044 NA
ATOM      4  C3  <0> d           0.025  -2.032  -0.747  0.00  0.00     0.747 A 
ATOM      5  N2  <0> d           0.039  -2.084   0.621  0.00  0.00    -0.086 N 
ATOM      6  N3  <0> d           0.023  -0.768   1.070  0.00  0.00    -0.141 NA
ATOM      7  C4  <0> d           0.077  -3.345   1.362  0.00  0.00     0.167 C 
ATOM      8  C5  <0> d          -0.616  -4.416   0.511  0.00  0.00     0.093 C 
ATOM      9  C6  <0> d          -0.209  -4.306  -0.932  0.00  0.00     0.066 C 
ATOM     10  N4  <0> d           0.052  -3.161  -1.504  0.00  0.00    -0.065 NA
ENDROOT
BRANCH   9  11
ATOM     11  C7  <0> d          -0.100  -5.536  -1.731  0.00  0.00    -0.011 A 
ATOM     12  C12 <0> d           0.277  -5.469  -3.076  0.00  0.00     0.015 A 
ATOM     13  C11 <0> d           0.381  -6.627  -3.818  0.00  0.00     0.024 A 
ATOM     14  C10 <0> d           0.104  -7.853  -3.236  0.00  0.00     0.034 A 
ATOM     15  C9  <0> d          -0.275  -7.927  -1.905  0.00  0.00     0.024 A 
ATOM     16 Cl1  <0> d           0.231  -9.305  -4.179  0.00  0.00    -0.084 Cl
ATOM     17  C8  <0> d          -0.378  -6.778  -1.150  0.00  0.00     0.015 A 
ENDBRANCH   9  11
BRANCH   7  18
ATOM     18  C13 <0> d           1.508  -3.742   1.618  0.00  0.00    -0.030 A 
ATOM     19  C17 <0> d           1.981  -3.896   2.912  0.00  0.00     0.028 A 
ATOM     20  C16 <0> d           3.298  -4.267   3.107  0.00  0.00     0.116 A 
ATOM     21  N5  <0> d           4.103  -4.464   2.082  0.00  0.00    -0.273 NA
ATOM     22  C15 <0> d           3.689  -4.321   0.838  0.00  0.00     0.116 A 
ATOM     23  C14 <0> d           2.384  -3.957   0.565  0.00  0.00     0.028 A 
ENDBRANCH   7  18
TORSDOF 2
