REMARK  3 active torsions:
REMARK  status: ('A' for Active; 'I' for Inactive)
REMARK    1  A    between atoms: C6_6  and  C8_9 
REMARK       I    between atoms: C8_9  and  N1_11 
REMARK    2  A    between atoms: C10_13  and  C17_21 
REMARK       I    between atoms: C17_21  and  N3_23 
REMARK    3  A    between atoms: N3_23  and  C18_24 
ROOT
ATOM      1  C8  <0> d           0.083  -2.891   2.584  0.00  0.00     0.258 C 
ATOM      2  O1  <0> d           1.129  -3.238   3.097  0.00  0.00    -0.267 OA
ATOM      3  N1  <0> d          -1.092  -3.261   3.131  0.00  0.00    -0.346 N 
ATOM      4  C9  <0> d          -2.458  -2.945   2.651  0.00  0.00     0.141 C 
ATOM      5  C10 <0> d          -3.264  -4.243   2.884  0.00  0.00     0.106 C 
ATOM      6  C11 <0> d          -2.506  -4.980   4.001  0.00  0.00    -0.007 C 
ATOM      7  C12 <0> d          -1.310  -4.082   4.346  0.00  0.00     0.136 C 
ATOM      8  C13 <0> d          -2.014  -6.335   3.501  0.00  0.00     0.039 C 
ATOM      9  C14 <0> d          -1.314  -7.073   4.646  0.00  0.00     0.233 C 
ATOM     10  N2  <0> d          -2.252  -7.251   5.761  0.00  0.00    -0.075 N 
ATOM     11  C15 <0> d          -2.649  -5.943   6.296  0.00  0.00     0.233 C 
ATOM     12  C16 <0> d          -3.405  -5.157   5.221  0.00  0.00     0.039 C 
ATOM     13  H17 <0> d          -3.071  -7.742   5.435  0.00  0.00     0.277 HD
ATOM     14  H34 <0> d          -1.808  -7.790   6.489  0.00  0.00     0.277 HD
ENDROOT
BRANCH   1  15
ATOM     15  C6  <0> d           0.099  -2.065   1.360  0.00  0.00     0.092 A 
ATOM     16  C5  <0> d           0.107  -2.673   0.102  0.00  0.00     0.052 A 
ATOM     17  C4  <0> d           0.122  -1.894  -1.038  0.00  0.00     0.026 A 
ATOM     18 Cl1  <0> d           0.098  -4.404  -0.028  0.00  0.00    -0.083 Cl
ATOM     19  C3  <0> d           0.129  -0.514  -0.937  0.00  0.00     0.011 A 
ATOM     20  C2  <0> d           0.120   0.097   0.304  0.00  0.00    -0.022 A 
ATOM     21  C1  <0> d           0.127   1.600   0.402  0.00  0.00     0.051 C 
ATOM     22  C7  <0> d           0.111  -0.669   1.455  0.00  0.00     0.139 A 
ATOM     23  F1  <0> d           0.108  -0.072   2.666  0.00  0.00    -0.204 F 
ENDBRANCH   1  15
BRANCH   5  24
ATOM     24  C17 <0> d          -4.667  -3.917   3.325  0.00  0.00     0.224 C 
ATOM     25  O2  <0> d          -4.881  -2.917   3.977  0.00  0.00    -0.273 OA
ATOM     26  N3  <0> d          -5.685  -4.737   2.994  0.00  0.00    -0.356 N 
ATOM     27  H22 <0> d          -5.514  -5.536   2.473  0.00  0.00     0.162 HD
BRANCH  26  28
ATOM     28  C18 <0> d          -7.049  -4.420   3.423  0.00  0.00     0.088 C 
ATOM     29  C23 <0> d          -7.873  -5.707   3.495  0.00  0.00     0.004 C 
ATOM     30  C22 <0> d          -9.298  -5.376   3.943  0.00  0.00     0.006 C 
ATOM     31  C24 <0> d          -7.233  -6.667   4.500  0.00  0.00     0.012 C 
ATOM     32  C21 <0> d          -9.939  -4.416   2.938  0.00  0.00     0.001 C 
ATOM     33  C20 <0> d          -9.115  -3.129   2.866  0.00  0.00     0.002 C 
ATOM     34  C19 <0> d          -7.690  -3.460   2.418  0.00  0.00     0.025 C 
ENDBRANCH  26  28
ENDBRANCH   5  24
TORSDOF 3
