REMARK  5 active torsions:
REMARK  status: ('A' for Active; 'I' for Inactive)
REMARK    1  A    between atoms: N1_2  and  S1_3 
REMARK    2  A    between atoms: S1_3  and  C2_6 
REMARK    3  A    between atoms: C5_9  and  C8_12 
REMARK       I    between atoms: C8_12  and  N2_14 
REMARK    4  A    between atoms: N2_14  and  C9_15 
REMARK    5  A    between atoms: C13_19  and  C15_21 
ROOT
ATOM      1  C8  <0> d          -4.239   0.351  -5.159  0.00  0.00     0.256 C 
ATOM      2  O3  <0> d          -5.010   1.288  -5.226  0.00  0.00    -0.267 OA
ATOM      3  N2  <0> d          -4.021  -0.422  -6.241  0.00  0.00    -0.323 N 
ATOM      4  H9  <0> d          -3.356  -1.128  -6.207  0.00  0.00     0.169 HD
ENDROOT
BRANCH   1   5
ATOM      5  C5  <0> d          -3.539   0.060  -3.889  0.00  0.00     0.032 A 
ATOM      6  C4  <0> d          -3.763   0.859  -2.767  0.00  0.00     0.018 A 
ATOM      7  C3  <0> d          -3.107   0.581  -1.585  0.00  0.00     0.026 A 
ATOM      8  C2  <0> d          -2.231  -0.487  -1.511  0.00  0.00     0.079 A 
ATOM      9  C7  <0> d          -2.001  -1.279  -2.621  0.00  0.00     0.026 A 
ATOM     10  C6  <0> d          -2.654  -1.016  -3.808  0.00  0.00     0.018 A 
BRANCH   8  11
ATOM     11  S1  <0> d          -1.397  -0.834   0.003  0.00  0.00     0.258 S 
ATOM     12  O1  <0> d          -1.042  -2.209  -0.036  0.00  0.00    -0.201 OA
ATOM     13  O2  <0> d          -2.195  -0.282   1.041  0.00  0.00    -0.201 OA
BRANCH  11  14
ATOM     14  N1  <0> d           0.020   0.022  -0.011  0.00  0.00    -0.320 N 
ATOM     15  C1  <0> d          -0.008   1.487  -0.004  0.00  0.00     0.159 C 
ATOM     16  H4  <0> d           0.869  -0.447  -0.025  0.00  0.00     0.171 HD
ENDBRANCH  11  14
ENDBRANCH   8  11
ENDBRANCH   1   5
BRANCH   3  17
ATOM     17  C9  <0> d          -4.754  -0.207  -7.413  0.00  0.00     0.035 A 
ATOM     18  C14 <0> d          -5.119  -1.283  -8.212  0.00  0.00     0.047 A 
ATOM     19  C13 <0> d          -5.848  -1.069  -9.365  0.00  0.00     0.071 A 
ATOM     20  C12 <0> d          -6.203   0.217  -9.731  0.00  0.00     0.049 A 
ATOM     21  C11 <0> d          -5.836   1.292  -8.940  0.00  0.00     0.027 A 
ATOM     22 Cl1  <0> d          -7.113   0.484 -11.186  0.00  0.00    -0.083 Cl
ATOM     23  C10 <0> d          -5.112   1.083  -7.782  0.00  0.00     0.031 A 
BRANCH  19  24
ATOM     24  C15 <0> d          -6.250  -2.236 -10.229  0.00  0.00     0.419 C 
ATOM     25  F1  <0> d          -5.780  -3.423  -9.658  0.00  0.00    -0.166 F 
ATOM     26  F2  <0> d          -7.645  -2.285 -10.326  0.00  0.00    -0.166 F 
ATOM     27  F3  <0> d          -5.700  -2.083 -11.506  0.00  0.00    -0.166 F 
ENDBRANCH  19  24
ENDBRANCH   3  17
TORSDOF 5
