REMARK  5 active torsions:
REMARK  status: ('A' for Active; 'I' for Inactive)
REMARK    1  A    between atoms: C2_2  and  N1_3 
REMARK    2  A    between atoms: N1_3  and  C3_4 
REMARK       I    between atoms: N1_3  and  C5_6 
REMARK    3  A    between atoms: C5_6  and  C6_8 
REMARK    4  A    between atoms: C6_8  and  N2_9 
REMARK       I    between atoms: N2_9  and  C7_10 
REMARK       I    between atoms: C7_10  and  N3_12 
REMARK    5  A    between atoms: N3_12  and  C8_13 
ROOT
ATOM      1  C8  <0> d          -5.206  -0.912  -5.401  0.00  0.00     0.055 A 
ATOM      2  C9  <0> d          -6.002   0.035  -4.766  0.00  0.00     0.052 A 
ATOM      3  C10 <0> d          -7.369   0.025  -5.039  0.00  0.00     0.081 A 
ATOM      4  C11 <0> d          -7.891  -0.926  -5.934  0.00  0.00     0.148 A 
ATOM      5  N4  <0> d          -7.091  -1.805  -6.512  0.00  0.00    -0.240 NA
ATOM      6  C12 <0> d          -5.793  -1.817  -6.277  0.00  0.00     0.148 A 
ATOM      7  N5  <0> d          -9.253  -0.915  -6.189  0.00  0.00    -0.287 N 
ATOM      8  C13 <0> d         -10.056  -0.015  -5.596  0.00  0.00     0.332 A 
ATOM      9  O3  <0> d         -11.245  -0.042  -5.850  0.00  0.00    -0.246 OA
ATOM     10  N6  <0> d          -9.605   0.910  -4.736  0.00  0.00    -0.270 N 
ATOM     11  C14 <0> d          -8.294   0.987  -4.417  0.00  0.00     0.265 A 
ATOM     12  O4  <0> d          -7.889   1.828  -3.637  0.00  0.00    -0.267 OA
ATOM     13  C15 <0> d         -10.549   1.854  -4.132  0.00  0.00     0.164 C 
ATOM     14  C16 <0> d          -9.824  -1.894  -7.117  0.00  0.00     0.163 C 
ENDROOT
BRANCH   1  15
ATOM     15  N3  <0> d          -3.825  -0.949  -5.164  0.00  0.00    -0.308 N 
ATOM     16  C7  <0> d          -3.342  -0.656  -3.940  0.00  0.00     0.321 C 
ATOM     17  N2  <0> d          -2.025  -0.783  -3.687  0.00  0.00    -0.334 N 
ATOM     18  O2  <0> d          -4.096  -0.277  -3.064  0.00  0.00    -0.247 OA
ATOM     19  H13 <0> d          -1.424  -1.085  -4.385  0.00  0.00     0.164 HD
ATOM     20  H14 <0> d          -3.216  -1.186  -5.881  0.00  0.00     0.170 HD
BRANCH  17  21
ATOM     21  C6  <0> d          -1.501  -0.465  -2.356  0.00  0.00     0.227 C 
BRANCH  21  22
ATOM     22  C5  <0> d          -0.011  -0.689  -2.336  0.00  0.00     0.237 C 
ATOM     23  N1  <0> d           0.690  -0.458  -1.208  0.00  0.00    -0.351 N 
ATOM     24  O1  <0> d           0.558  -1.076  -3.335  0.00  0.00    -0.272 OA
BRANCH  23  25
ATOM     25  C2  <0> d           0.004   0.009  -0.002  0.00  0.00     0.121 C 
ATOM     26  C1  <0> d          -0.025   1.539   0.008  0.00  0.00     0.026 C 
ENDBRANCH  23  25
BRANCH  23  27
ATOM     27  C3  <0> d           2.139  -0.676  -1.189  0.00  0.00     0.121 C 
ATOM     28  C4  <0> d           2.433  -2.118  -0.772  0.00  0.00     0.026 C 
ENDBRANCH  23  27
ENDBRANCH  21  22
ENDBRANCH  17  21
ENDBRANCH   1  15
TORSDOF 5
