REMARK  3 active torsions:
REMARK  status: ('A' for Active; 'I' for Inactive)
REMARK    1  A    between atoms: C3_4  and  N4_10 
REMARK    2  A    between atoms: C4_5  and  C5_7 
REMARK       I    between atoms: C5_7  and  N3_9 
REMARK       I    between atoms: N4_10  and  C6_11 
REMARK    3  A    between atoms: C6_11  and  C7_13 
ROOT
ATOM      1  C1  <0> d          -5.345   5.654  -0.397  0.00  0.00     0.179 C 
ATOM      2  N1  <0> d          -4.880   4.266  -0.335  0.00  0.00    -0.282 N 
ATOM      3  C2  <0> d          -3.582   3.887  -0.218  0.00  0.00     0.144 A 
ATOM      4  C3  <0> d          -3.563   2.527  -0.197  0.00  0.00     0.088 A 
ATOM      5  C4  <0> d          -4.922   2.131  -0.300  0.00  0.00     0.172 A 
ATOM      6  N2  <0> d          -5.642   3.233  -0.378  0.00  0.00    -0.165 NA
ENDROOT
BRANCH   4   7
ATOM      7  N4  <0> d          -2.441   1.694  -0.091  0.00  0.00    -0.318 N 
ATOM      8  C6  <0> d          -1.208   2.232  -0.001  0.00  0.00     0.275 C 
ATOM      9  O2  <0> d          -1.076   3.438   0.084  0.00  0.00    -0.266 OA
ATOM     10  H7  <0> d          -2.551   0.730  -0.082  0.00  0.00     0.169 HD
BRANCH   8  11
ATOM     11  C7  <0> d          -0.023   1.360  -0.005  0.00  0.00     0.138 A 
ATOM     12  N6  <0> d           0.586   0.799   1.082  0.00  0.00    -0.268 N 
ATOM     13  N5  <0> d           1.589   0.094   0.698  0.00  0.00    -0.183 NA
ATOM     14  C10 <0> d           0.161   0.975   2.473  0.00  0.00     0.180 C 
ATOM     15  C9  <0> d           1.716   0.131  -0.604  0.00  0.00     0.159 A 
ATOM     16  C8  <0> d           0.695   0.939  -1.112  0.00  0.00     0.059 A 
ATOM     17  I1  <0> d           0.328   1.411  -3.120  0.00  0.00    -0.040 I 
ENDBRANCH   8  11
ENDBRANCH   4   7
BRANCH   5  18
ATOM     18  C5  <0> d          -5.433   0.747  -0.317  0.00  0.00     0.272 C 
ATOM     19  O1  <0> d          -4.659  -0.187  -0.237  0.00  0.00    -0.266 OA
ATOM     20  N3  <0> d          -6.757   0.519  -0.420  0.00  0.00    -0.365 N 
ATOM     21  H5  <0> d          -7.374   1.264  -0.483  0.00  0.00     0.159 HD
ATOM     22  H6  <0> d          -7.093  -0.391  -0.430  0.00  0.00     0.159 HD
ENDBRANCH   5  18
TORSDOF 3
