REMARK  6 active torsions:
REMARK  status: ('A' for Active; 'I' for Inactive)
REMARK    1  A    between atoms: O1_2  and  C2_3 
REMARK    2  A    between atoms: C2_3  and  C3_5 
REMARK    3  A    between atoms: C6_9  and  N1_10 
REMARK       I    between atoms: N1_10  and  C7_11 
REMARK       I    between atoms: C7_11  and  N2_13 
REMARK    4  A    between atoms: N2_13  and  C8_14 
REMARK    5  A    between atoms: C14_21  and  N4_23 
REMARK    6  A    between atoms: N4_23  and  S3_24 
ROOT
ATOM      1  N1  <0> d          -1.125   2.559   0.173  0.00  0.00    -0.302 N 
ATOM      2  C7  <0> d          -2.377   2.060   0.183  0.00  0.00     0.325 C 
ATOM      3  O3  <0> d          -2.554   0.866   0.325  0.00  0.00    -0.247 OA
ATOM      4  N2  <0> d          -3.432   2.885   0.035  0.00  0.00    -0.309 N 
ATOM      5  H4  <0> d          -0.984   3.512   0.060  0.00  0.00     0.171 HD
ATOM      6  H5  <0> d          -3.297   3.845  -0.001  0.00  0.00     0.170 HD
ENDROOT
BRANCH   1   7
ATOM      7  C6  <0> d          -0.040   1.711   0.325  0.00  0.00     0.095 A 
ATOM      8  C3  <0> d           1.312   2.032   0.337  0.00  0.00     0.080 A 
ATOM      9  C4  <0> d           2.259   0.943   0.508  0.00  0.00    -0.026 A 
ATOM     10  C19 <0> d           3.770   1.131   0.543  0.00  0.00     0.041 C 
ATOM     11  C5  <0> d           1.708  -0.283   0.640  0.00  0.00    -0.008 A 
ATOM     12  C18 <0> d           4.406  -0.104   1.182  0.00  0.00     0.005 C 
ATOM     13  C17 <0> d           3.908  -1.370   0.477  0.00  0.00     0.005 C 
ATOM     14  C16 <0> d           2.429  -1.582   0.829  0.00  0.00     0.047 C 
ATOM     15  S1  <0> d          -0.038  -0.008   0.540  0.00  0.00    -0.075 SA
BRANCH   8  16
ATOM     16  C2  <0> d           1.765   3.415   0.181  0.00  0.00     0.296 C 
ATOM     17  O2  <0> d           1.914   4.121   1.161  0.00  0.00    -0.259 OA
BRANCH  16  18
ATOM     18  O1  <0> d           2.018   3.908  -1.050  0.00  0.00    -0.322 OA
ATOM     19  C1  <0> d           2.464   5.287  -1.129  0.00  0.00     0.213 C 
ENDBRANCH  16  18
ENDBRANCH   8  16
ENDBRANCH   1   7
BRANCH   4  20
ATOM     20  C8  <0> d          -4.726   2.356  -0.066  0.00  0.00     0.037 A 
ATOM     21  C13 <0> d          -4.938   1.129  -0.681  0.00  0.00     0.051 A 
ATOM     22  C12 <0> d          -6.212   0.626  -0.767  0.00  0.00     0.039 A 
ATOM     23  C11 <0> d          -7.339   1.311  -0.261  0.00  0.00     0.077 A 
ATOM     24  S2  <0> d          -6.935  -0.851  -1.438  0.00  0.00    -0.049 SA
ATOM     25  C10 <0> d          -7.090   2.560   0.355  0.00  0.00     0.035 A 
ATOM     26  N3  <0> d          -8.527   0.686  -0.427  0.00  0.00    -0.223 NA
ATOM     27  C9  <0> d          -5.817   3.057   0.443  0.00  0.00     0.032 A 
ATOM     28  C14 <0> d          -8.633  -0.481  -1.019  0.00  0.00     0.181 A 
BRANCH  28  29
ATOM     29  N4  <0> d          -9.767  -1.232  -1.257  0.00  0.00    -0.263 N 
ATOM     30  H9  <0> d          -9.697  -2.086  -1.710  0.00  0.00     0.180 HD
BRANCH  29  31
ATOM     31  S3  <0> d         -11.247  -0.672  -0.769  0.00  0.00     0.228 S 
ATOM     32  O4  <0> d         -12.162  -1.691  -1.147  0.00  0.00    -0.206 OA
ATOM     33  O5  <0> d         -11.072  -0.328   0.599  0.00  0.00    -0.206 OA
ATOM     34  C15 <0> d         -11.531   0.822  -1.758  0.00  0.00     0.186 C 
ENDBRANCH  29  31
ENDBRANCH  28  29
ENDBRANCH   4  20
TORSDOF 6
