REMARK  4 active torsions:
REMARK  status: ('A' for Active; 'I' for Inactive)
REMARK    1  A    between atoms: C3_3  and  C15_21 
REMARK    2  A    between atoms: C5_5  and  C6_7 
REMARK       I    between atoms: C6_7  and  N2_9 
REMARK    3  A    between atoms: N2_9  and  N3_10 
REMARK       I    between atoms: N3_10  and  C7_11 
REMARK    4  A    between atoms: C7_11  and  C8_13 
ROOT
ATOM      1  C6  <0> d           2.775  -1.865   1.576  0.00  0.00     0.288 C 
ATOM      2  O1  <0> d           3.688  -2.489   1.074  0.00  0.00    -0.264 OA
ATOM      3  N2  <0> d           2.673  -1.782   2.918  0.00  0.00    -0.262 N 
ATOM      4  H5  <0> d           1.943  -1.284   3.319  0.00  0.00     0.190 HD
ENDROOT
BRANCH   3   5
ATOM      5  N3  <0> d           3.620  -2.416   3.733  0.00  0.00    -0.263 N 
ATOM      6  C7  <0> d           3.518  -2.333   5.074  0.00  0.00     0.270 C 
ATOM      7  O2  <0> d           2.604  -1.709   5.577  0.00  0.00    -0.266 OA
ATOM      8  H6  <0> d           4.349  -2.914   3.332  0.00  0.00     0.190 HD
BRANCH   6   9
ATOM      9  C8  <0> d           4.517  -3.001   5.934  0.00  0.00     0.033 A 
ATOM     10  C13 <0> d           4.414  -2.917   7.324  0.00  0.00     0.018 A 
ATOM     11  C12 <0> d           5.347  -3.547   8.121  0.00  0.00     0.020 A 
ATOM     12  C11 <0> d           6.391  -4.252   7.545  0.00  0.00     0.011 A 
ATOM     13  C10 <0> d           6.501  -4.334   6.167  0.00  0.00     0.020 A 
ATOM     14 Br1  <0> d           7.669  -5.106   8.645  0.00  0.00    -0.051 Br
ATOM     15  C9  <0> d           5.572  -3.713   5.360  0.00  0.00     0.018 A 
ENDBRANCH   6   9
ENDBRANCH   3   5
BRANCH   1  16
ATOM     16  C5  <0> d           1.769  -1.193   0.711  0.00  0.00     0.127 A 
ATOM     17  C4  <0> d           1.785  -1.218  -0.758  0.00  0.00    -0.016 A 
ATOM     18  C3  <0> d           0.732  -0.510  -1.223  0.00  0.00     0.020 A 
ATOM     19  C14 <0> d           2.811  -1.922  -1.609  0.00  0.00     0.052 C 
ATOM     20  C2  <0> d           0.002  -0.004   0.002  0.00  0.00     0.142 A 
ATOM     21  C1  <0> d          -0.019   1.526   0.010  0.00  0.00     0.040 C 
ATOM     22  N1  <0> d           0.761  -0.507   1.153  0.00  0.00    -0.274 NA
BRANCH  18  23
ATOM     23  C15 <0> d           0.371  -0.281  -2.621  0.00  0.00     0.154 C 
ATOM     24  O3  <0> d           1.053  -0.751  -3.508  0.00  0.00    -0.293 OA
ATOM     25  C16 <0> d          -0.847   0.539  -2.961  0.00  0.00     0.096 C 
ENDBRANCH  18  23
ENDBRANCH   1  16
TORSDOF 4
