REMARK  6 active torsions:
REMARK  status: ('A' for Active; 'I' for Inactive)
REMARK    1  A    between atoms: C3_4  and  C5_7 
REMARK    2  A    between atoms: C6_9  and  C8_12 
REMARK    3  A    between atoms: C8_12  and  N4_13 
REMARK    4  A    between atoms: N4_13  and  C9_14 
REMARK    5  A    between atoms: C9_14  and  C10_15 
REMARK    6  A    between atoms: C10_15  and  N5_16 
ROOT
ATOM      1  N4  <0> d           5.191  -4.493   1.296  0.00  0.00    -0.068 N 
ATOM      2  H7  <0> d           5.919  -4.054   1.841  0.00  0.00     0.277 HD
ATOM      3  H20 <0> d           4.293  -4.287   1.706  0.00  0.00     0.277 HD
ENDROOT
BRANCH   1   4
ATOM      4  C8  <0> d           5.232  -3.978  -0.080  0.00  0.00     0.291 C 
BRANCH   4   5
ATOM      5  C6  <0> d           5.018  -2.486  -0.064  0.00  0.00     0.068 A 
ATOM      6  N3  <0> d           3.803  -1.998  -0.050  0.00  0.00    -0.240 NA
ATOM      7  C5  <0> d           3.585  -0.690  -0.036  0.00  0.00     0.145 A 
ATOM      8  S1  <0> d           5.258  -0.059  -0.049  0.00  0.00    -0.076 SA
ATOM      9  C7  <0> d           6.088  -1.643  -0.063  0.00  0.00     0.081 A 
BRANCH   7  10
ATOM     10  C3  <0> d           2.304   0.047  -0.020  0.00  0.00     0.185 A 
ATOM     11  N1  <0> d           2.320   1.375  -0.013  0.00  0.00    -0.239 NA
ATOM     12  C2  <0> d           1.192   2.063   0.002  0.00  0.00     0.120 A 
ATOM     13  C1  <0> d          -0.017   1.383   0.010  0.00  0.00     0.038 A 
ATOM     14  C4  <0> d           0.002  -0.004   0.002  0.00  0.00     0.120 A 
ATOM     15  N2  <0> d           1.164  -0.633  -0.013  0.00  0.00    -0.239 NA
ENDBRANCH   7  10
ENDBRANCH   4   5
ENDBRANCH   1   4
BRANCH   1  16
ATOM     16  C9  <0> d           5.400  -5.947   1.280  0.00  0.00     0.262 C 
BRANCH  16  17
ATOM     17  C10 <0> d           5.358  -6.483   2.712  0.00  0.00     0.300 C 
BRANCH  17  18
ATOM     18  N5  <0> d           5.567  -7.937   2.697  0.00  0.00     0.094 N 
ATOM     19  C17 <0> d           6.922  -8.270   2.240  0.00  0.00     0.312 C 
ATOM     20  C14 <0> d           7.088  -9.786   2.267  0.00  0.00    -0.017 A 
ATOM     21  C13 <0> d           6.231 -10.543   3.009  0.00  0.00    -0.008 A 
ATOM     22  C15 <0> d           8.078 -10.472   1.568  0.00  0.00     0.017 A 
ATOM     23  C12 <0> d           5.097 -10.046   3.844  0.00  0.00     0.077 C 
ATOM     24  S2  <0> d           6.789 -12.201   2.739  0.00  0.00    -0.106 SA
ATOM     25  C11 <0> d           5.267  -8.527   4.010  0.00  0.00     0.278 C 
ATOM     26  C16 <0> d           8.150 -11.821   1.645  0.00  0.00     0.051 A 
ENDBRANCH  17  18
ENDBRANCH  16  17
ENDBRANCH   1  16
TORSDOF 6
