REMARK  5 active torsions:
REMARK  status: ('A' for Active; 'I' for Inactive)
REMARK    1  A    between atoms: C3_5  and  S2_22 
REMARK    2  A    between atoms: C9_11  and  O4_21 
REMARK    3  A    between atoms: C12_16  and  C13_17 
REMARK    4  A    between atoms: C12_16  and  S1_19 
REMARK    5  A    between atoms: C13_17  and  O3_18 
ROOT
ATOM      1  C1  <0> d           7.184  -0.790   2.414  0.00  0.00     0.155 C 
ATOM      2  N1  <0> d           5.976  -0.801   1.584  0.00  0.00    -0.325 N 
ATOM      3  C2  <0> d           5.396   0.370   1.244  0.00  0.00     0.260 C 
ATOM      4  O1  <0> d           5.886   1.424   1.589  0.00  0.00    -0.269 OA
ATOM      5  C3  <0> d           4.128   0.344   0.429  0.00  0.00     0.169 C 
ATOM      6  C4  <0> d           3.257   1.577   0.730  0.00  0.00     0.089 C 
ATOM      7  C5  <0> d           1.851   1.038   0.626  0.00  0.00    -0.051 C 
ATOM      8  C6  <0> d           0.734   1.627   0.233  0.00  0.00     0.005 C 
ATOM      9  C7  <0> d          -0.459   0.766   0.089  0.00  0.00    -0.001 C 
ATOM     10  C8  <0> d          -0.324  -0.551   0.021  0.00  0.00     0.007 C 
ATOM     11  C9  <0> d           1.029  -1.217   0.066  0.00  0.00     0.168 C 
ATOM     12  C10 <0> d           1.946  -0.430   1.000  0.00  0.00     0.151 C 
ATOM     13  N2  <0> d           3.340  -0.823   0.879  0.00  0.00    -0.310 N 
ATOM     14  C11 <0> d           3.912  -2.018   1.147  0.00  0.00     0.263 C 
ATOM     15  O2  <0> d           3.240  -3.000   1.385  0.00  0.00    -0.269 OA
ATOM     16  C12 <0> d           5.423  -2.082   1.140  0.00  0.00     0.186 C 
ENDROOT
BRANCH  16  17
ATOM     17  C13 <0> d           5.890  -3.192   2.083  0.00  0.00     0.217 C 
BRANCH  17  18
ATOM     18  O3  <0> d           5.357  -4.444   1.645  0.00  0.00    -0.397 OA
ATOM     19  H13 <0> d           5.613  -5.195   2.198  0.00  0.00     0.209 HD
ENDBRANCH  17  18
ENDBRANCH  16  17
BRANCH  16  20
ATOM     20  S1  <0> d           6.003  -2.435  -0.542  0.00  0.00    -0.130 SA
ATOM     21  C14 <0> d           7.810  -2.344  -0.411  0.00  0.00     0.093 C 
ENDBRANCH  16  20
BRANCH   5  22
ATOM     22  S2  <0> d           4.505   0.224  -1.341  0.00  0.00    -0.132 SA
ATOM     23  C15 <0> d           5.574   1.654  -1.660  0.00  0.00     0.093 C 
ENDBRANCH   5  22
BRANCH  11  24
ATOM     24  O4  <0> d           0.887  -2.554   0.550  0.00  0.00    -0.389 OA
ATOM     25  H17 <0> d           0.314  -3.111   0.006  0.00  0.00     0.210 HD
ENDBRANCH  11  24
TORSDOF 5
