REMARK  5 active torsions:
REMARK  status: ('A' for Active; 'I' for Inactive)
REMARK    1  A    between atoms: C2_2  and  C3_3 
REMARK    2  A    between atoms: C3_3  and  S1_4 
REMARK    3  A    between atoms: S1_4  and  C4_5 
REMARK    4  A    between atoms: C7_10  and  C11_17 
REMARK       I    between atoms: C11_17  and  N4_19 
REMARK    5  A    between atoms: N4_19  and  C12_20 
ROOT
ATOM      1  C4  <0> d          -2.998  -2.541  -1.396  0.00  0.00     0.193 A 
ATOM      2  N1  <0> d          -3.671  -2.347  -0.275  0.00  0.00    -0.187 NA
ATOM      3  C5  <0> d          -4.878  -2.879  -0.072  0.00  0.00     0.258 A 
ATOM      4  O1  <0> d          -5.479  -2.717   0.973  0.00  0.00    -0.270 OA
ATOM      5  C6  <0> d          -5.463  -3.693  -1.207  0.00  0.00     0.163 A 
ATOM      6  C7  <0> d          -5.824  -5.078  -0.668  0.00  0.00     0.107 C 
ATOM      7  C8  <0> d          -6.572  -5.848  -1.759  0.00  0.00     0.118 C 
ATOM      8  C9  <0> d          -5.839  -5.776  -3.067  0.00  0.00     0.223 C 
ATOM      9  O2  <0> d          -6.097  -6.596  -3.922  0.00  0.00    -0.273 OA
ATOM     10  N2  <0> d          -4.911  -4.843  -3.334  0.00  0.00    -0.314 N 
ATOM     11  C10 <0> d          -4.548  -3.926  -2.395  0.00  0.00     0.123 A 
ATOM     12  N3  <0> d          -3.398  -3.315  -2.411  0.00  0.00    -0.208 NA
ATOM     13  H10 <0> d          -4.500  -4.811  -4.212  0.00  0.00     0.170 HD
ENDROOT
BRANCH   6  14
ATOM     14  C11 <0> d          -4.566  -5.818  -0.293  0.00  0.00     0.228 C 
ATOM     15  O3  <0> d          -3.484  -5.290  -0.442  0.00  0.00    -0.273 OA
ATOM     16  N4  <0> d          -4.643  -7.067   0.208  0.00  0.00    -0.327 N 
ATOM     17  H11 <0> d          -5.509  -7.464   0.391  0.00  0.00     0.169 HD
BRANCH  16  18
ATOM     18  C12 <0> d          -3.473  -7.791   0.465  0.00  0.00     0.034 A 
ATOM     19  C17 <0> d          -2.334  -7.136   0.916  0.00  0.00     0.031 A 
ATOM     20  C16 <0> d          -1.183  -7.853   1.174  0.00  0.00     0.021 A 
ATOM     21  C15 <0> d          -1.159  -9.222   0.973  0.00  0.00     0.011 A 
ATOM     22  C14 <0> d          -2.291  -9.876   0.518  0.00  0.00     0.021 A 
ATOM     23 Br1  <0> d           0.421 -10.200   1.320  0.00  0.00    -0.051 Br
ATOM     24  C13 <0> d          -3.446  -9.165   0.264  0.00  0.00     0.031 A 
ENDBRANCH  16  18
ENDBRANCH   6  14
BRANCH   1  25
ATOM     25  S1  <0> d          -1.455  -1.707  -1.569  0.00  0.00    -0.086 SA
BRANCH  25  26
ATOM     26  C3  <0> d          -1.277  -0.784  -0.018  0.00  0.00     0.108 C 
BRANCH  26  27
ATOM     27  C2  <0> d           0.019  -0.017  -0.035  0.00  0.00    -0.026 C 
ATOM     28  C1  <0> d           0.005   1.293  -0.029  0.00  0.00     0.007 C 
ENDBRANCH  26  27
ENDBRANCH  25  26
ENDBRANCH   1  25
TORSDOF 5
