REMARK  7 active torsions:
REMARK  status: ('A' for Active; 'I' for Inactive)
REMARK    1  A    between atoms: C5_5  and  C8_8 
REMARK    2  A    between atoms: N1_13  and  C11_14 
REMARK    3  A    between atoms: C11_14  and  C12_15 
REMARK       I    between atoms: C12_15  and  N2_17 
REMARK    4  A    between atoms: N2_17  and  C13_18 
REMARK    5  A    between atoms: C13_18  and  C14_19 
REMARK    6  A    between atoms: C14_19  and  N3_20 
REMARK       I    between atoms: N3_20  and  C15_21 
REMARK    7  A    between atoms: C15_21  and  C16_23 
ROOT
ATOM      1  C12 <0> d           5.145   1.476   0.308  0.00  0.00     0.235 C 
ATOM      2  O1  <0> d           4.977   0.312   0.602  0.00  0.00    -0.272 OA
ATOM      3  N2  <0> d           4.113   2.341   0.364  0.00  0.00    -0.358 N 
ATOM      4  H11 <0> d           4.265   3.397   0.098  0.00  0.00     0.162 HD
ENDROOT
BRANCH   1   5
ATOM      5  C11 <0> d           6.508   1.956  -0.119  0.00  0.00     0.233 C 
BRANCH   5   6
ATOM      6  N1  <0> d           7.450   0.835  -0.098  0.00  0.00    -0.322 N 
ATOM      7  C8  <0> d           7.734   0.149  -1.246  0.00  0.00     0.053 A 
ATOM      8  C9  <0> d           8.605  -0.882  -1.205  0.00  0.00     0.083 A 
ATOM      9  S1  <0> d           9.060  -0.905   0.522  0.00  0.00    -0.070 SA
ATOM     10  C10 <0> d           8.053   0.469   1.058  0.00  0.00     0.145 A 
ATOM     11  S2  <0> d           7.892   1.146   2.623  0.00  0.00    -0.052 SA
BRANCH   7  12
ATOM     12  C5  <0> d           7.092   0.532  -2.522  0.00  0.00    -0.009 A 
ATOM     13  C4  <0> d           7.810   0.462  -3.717  0.00  0.00     0.014 A 
ATOM     14  C3  <0> d           7.205   0.821  -4.904  0.00  0.00     0.007 A 
ATOM     15  C2  <0> d           5.890   1.249  -4.912  0.00  0.00    -0.062 A 
ATOM     16  C1  <0> d           5.235   1.639  -6.212  0.00  0.00     0.048 C 
ATOM     17  C7  <0> d           5.172   1.321  -3.731  0.00  0.00     0.007 A 
ATOM     18  C6  <0> d           5.764   0.960  -2.538  0.00  0.00     0.014 A 
ENDBRANCH   7  12
ENDBRANCH   5   6
ENDBRANCH   1   5
BRANCH   3  19
ATOM     19  C13 <0> d           2.788   1.874   0.780  0.00  0.00     0.142 C 
BRANCH  19  20
ATOM     20  C14 <0> d           1.804   3.046   0.758  0.00  0.00     0.142 C 
BRANCH  20  21
ATOM     21  N3  <0> d           0.479   2.579   1.174  0.00  0.00    -0.355 N 
ATOM     22  C15 <0> d          -0.554   3.442   1.224  0.00  0.00     0.251 C 
ATOM     23  O2  <0> d          -0.386   4.610   0.930  0.00  0.00    -0.268 OA
ATOM     24  H16 <0> d           0.328   1.524   1.444  0.00  0.00     0.162 HD
BRANCH  22  25
ATOM     25  C16 <0> d          -1.893   2.970   1.638  0.00  0.00     0.035 A 
ATOM     26  C21 <0> d          -2.965   3.862   1.692  0.00  0.00     0.059 A 
ATOM     27  C20 <0> d          -4.213   3.413   2.079  0.00  0.00     0.123 A 
ATOM     28  C19 <0> d          -4.400   2.082   2.414  0.00  0.00    -0.023 A 
ATOM     29  F1  <0> d          -5.253   4.274   2.132  0.00  0.00    -0.206 F 
ATOM     30  C18 <0> d          -3.340   1.194   2.363  0.00  0.00     0.011 A 
ATOM     31  C22 <0> d          -5.764   1.598   2.836  0.00  0.00     0.051 C 
ATOM     32  C17 <0> d          -2.091   1.629   1.971  0.00  0.00     0.018 A 
ENDBRANCH  22  25
ENDBRANCH  20  21
ENDBRANCH  19  20
ENDBRANCH   3  19
TORSDOF 7
