REMARK  4 active torsions:
REMARK  status: ('A' for Active; 'I' for Inactive)
REMARK    1  A    between atoms: C6_6  and  N1_7 
REMARK    2  A    between atoms: N1_7  and  C7_8 
REMARK    3  A    between atoms: N2_10  and  C8_11 
REMARK    4  A    between atoms: C8_11  and  C9_12 
ROOT
ATOM      1  C7  <0> d          -1.183  -2.065  -0.099  0.00  0.00     0.172 C 
ATOM      2  S1  <0> d           0.309  -2.904  -0.119  0.00  0.00    -0.041 SA
ATOM      3  N2  <0> d          -2.341  -2.747  -0.193  0.00  0.00    -0.363 N 
ATOM      4  H6  <0> d          -3.187  -2.272  -0.182  0.00  0.00     0.162 HD
ENDROOT
BRANCH   1   5
ATOM      5  N1  <0> d          -1.199  -0.721   0.010  0.00  0.00    -0.333 N 
ATOM      6  H5  <0> d          -2.043  -0.253   0.102  0.00  0.00     0.168 HD
BRANCH   5   7
ATOM      7  C6  <0> d           0.001  -0.003  -0.009  0.00  0.00     0.034 A 
ATOM      8  C1  <0> d           1.004  -0.347  -0.907  0.00  0.00     0.031 A 
ATOM      9  C2  <0> d           2.187   0.364  -0.924  0.00  0.00     0.021 A 
ATOM     10  C3  <0> d           2.376   1.418  -0.048  0.00  0.00     0.011 A 
ATOM     11  C4  <0> d           1.379   1.763   0.847  0.00  0.00     0.021 A 
ATOM     12 Br1  <0> d           3.998   2.389  -0.074  0.00  0.00    -0.051 Br
ATOM     13  C5  <0> d           0.193   1.055   0.869  0.00  0.00     0.031 A 
ENDBRANCH   5   7
ENDBRANCH   1   5
BRANCH   3  14
ATOM     14  C8  <0> d          -2.323  -4.207  -0.311  0.00  0.00     0.160 C 
BRANCH  14  15
ATOM     15  C9  <0> d          -3.737  -4.722  -0.400  0.00  0.00    -0.038 A 
ATOM     16  C13 <0> d          -4.364  -4.867  -1.628  0.00  0.00     0.028 A 
ATOM     17  C12 <0> d          -5.659  -5.347  -1.670  0.00  0.00     0.116 A 
ATOM     18  N3  <0> d          -6.301  -5.655  -0.560  0.00  0.00    -0.273 NA
ATOM     19  C11 <0> d          -5.739  -5.524   0.626  0.00  0.00     0.116 A 
ATOM     20  C10 <0> d          -4.444  -5.055   0.746  0.00  0.00     0.028 A 
ENDBRANCH  14  15
ENDBRANCH   3  14
TORSDOF 4
