REMARK  2 active torsions:
REMARK  status: ('A' for Active; 'I' for Inactive)
REMARK    1  A    between atoms: N2_7  and  C6_8 
REMARK    2  A    between atoms: C6_8  and  C7_9 
ROOT
ATOM      1  C1  <0> d          -0.104   1.472   0.099  0.00  0.00     0.045 C 
ATOM      2  C2  <0> d          -0.001  -0.052   0.009  0.00  0.00     0.244 C 
ATOM      3  C3  <0> d          -1.405  -0.660  -0.002  0.00  0.00     0.267 C 
ATOM      4  N1  <0> d          -1.304  -2.124  -0.067  0.00  0.00    -0.071 N 
ATOM      5  C4  <0> d          -0.582  -2.620   1.111  0.00  0.00     0.262 C 
ATOM      6  C5  <0> d           0.829  -2.029   1.131  0.00  0.00     0.300 C 
ATOM      7  N2  <0> d           0.743  -0.562   1.170  0.00  0.00     0.098 N 
ATOM      8  H8  <0> d          -2.231  -2.524  -0.087  0.00  0.00     0.277 HD
ATOM      9  H21 <0> d          -0.806  -2.389  -0.904  0.00  0.00     0.277 HD
ENDROOT
BRANCH   7  10
ATOM     10  C6  <0> d           2.079   0.043   1.247  0.00  0.00     0.305 C 
BRANCH  10  11
ATOM     11  C7  <0> d           2.654  -0.166   2.649  0.00  0.00     0.154 C 
ATOM     12  O2  <0> d           2.900  -1.560   2.863  0.00  0.00    -0.360 OA
ATOM     13  C10 <0> d           3.489  -1.853   4.132  0.00  0.00     0.338 C 
ATOM     14  O1  <0> d           4.730  -1.153   4.257  0.00  0.00    -0.367 OA
ATOM     15  C9  <0> d           4.606   0.267   4.138  0.00  0.00     0.173 C 
ATOM     16  C8  <0> d           3.974   0.600   2.782  0.00  0.00     0.060 C 
ENDBRANCH  10  11
ENDBRANCH   7  10
TORSDOF 2
