REMARK  9 active torsions:
REMARK  status: ('A' for Active; 'I' for Inactive)
REMARK    1  A    between atoms: C5_5  and  N1_8 
REMARK       I    between atoms: N1_8  and  C8_9 
REMARK       I    between atoms: C8_9  and  N2_11 
REMARK    2  A    between atoms: N3_14  and  C13_17 
REMARK    3  A    between atoms: C13_17  and  C14_18 
REMARK    4  A    between atoms: C14_18  and  N4_19 
REMARK    5  A    between atoms: N4_19  and  C15_20 
REMARK       I    between atoms: N4_19  and  C25_31 
REMARK    6  A    between atoms: C15_20  and  C16_21 
REMARK    7  A    between atoms: C17_22  and  C18_23 
REMARK    8  A    between atoms: C23_28  and  O2_29 
REMARK    9  A    between atoms: C25_31  and  C26_33 
ROOT
ATOM      1  C14 <0> d          -1.667   0.746  -0.820  0.00  0.00     0.154 C 
ENDROOT
BRANCH   1   2
ATOM      2  C13 <0> d          -1.341   1.298  -2.210  0.00  0.00     0.254 C 
BRANCH   2   3
ATOM      3  N3  <0> d          -2.151   2.497  -2.463  0.00  0.00    -0.067 N 
ATOM      4  C10 <0> d          -1.701   3.189  -3.678  0.00  0.00     0.254 C 
ATOM      5  C9  <0> d          -2.444   4.523  -3.807  0.00  0.00     0.155 C 
ATOM      6  N2  <0> d          -3.890   4.260  -3.740  0.00  0.00    -0.331 N 
ATOM      7  C8  <0> d          -4.726   4.746  -4.679  0.00  0.00     0.323 C 
ATOM      8  C12 <0> d          -4.399   3.454  -2.620  0.00  0.00     0.155 C 
ATOM      9  N1  <0> d          -6.057   4.587  -4.543  0.00  0.00    -0.309 N 
ATOM     10  O1  <0> d          -4.279   5.328  -5.648  0.00  0.00    -0.247 OA
ATOM     11  H8  <0> d          -6.466   4.130  -3.630  0.00  0.00     0.170 HD
ATOM     12  C11 <0> d          -3.579   2.162  -2.538  0.00  0.00     0.254 C 
ATOM     13  H35 <0> d          -2.013   3.185  -1.615  0.00  0.00     0.280 HD
BRANCH   9  14
ATOM     14  C5  <0> d          -6.919   5.002  -5.565  0.00  0.00     0.036 A 
ATOM     15  C4  <0> d          -8.180   5.494  -5.254  0.00  0.00     0.030 A 
ATOM     16  C3  <0> d          -9.028   5.903  -6.264  0.00  0.00     0.009 A 
ATOM     17  C2  <0> d          -8.623   5.825  -7.584  0.00  0.00    -0.062 A 
ATOM     18  C1  <0> d          -9.551   6.273  -8.683  0.00  0.00     0.048 C 
ATOM     19  C7  <0> d          -7.367   5.337  -7.896  0.00  0.00     0.009 A 
ATOM     20  C6  <0> d          -6.513   4.930  -6.891  0.00  0.00     0.030 A 
ENDBRANCH   9  14
ENDBRANCH   2   3
ENDBRANCH   1   2
BRANCH   1  21
ATOM     21  N4  <0> d          -0.860  -0.450  -0.568  0.00  0.00    -0.343 N 
ATOM     22  C25 <0> d           0.391  -0.329  -0.079  0.00  0.00     0.261 C 
ATOM     23  O3  <0> d           0.839   0.773   0.177  0.00  0.00    -0.267 OA
BRANCH  21  24
ATOM     24  C15 <0> d          -1.411  -1.778  -0.848  0.00  0.00     0.153 C 
BRANCH  24  25
ATOM     25  C16 <0> d          -1.937  -2.383   0.429  0.00  0.00    -0.006 C 
ATOM     26  C17 <0> d          -3.192  -2.804   0.495  0.00  0.00     0.012 C 
BRANCH  26  27
ATOM     27  C18 <0> d          -3.708  -3.396   1.747  0.00  0.00    -0.003 A 
ATOM     28  C23 <0> d          -5.034  -3.837   1.823  0.00  0.00     0.078 A 
ATOM     29  C22 <0> d          -5.507  -4.396   2.999  0.00  0.00     0.037 A 
ATOM     30  C21 <0> d          -4.674  -4.507   4.096  0.00  0.00     0.003 A 
ATOM     31  C20 <0> d          -3.363  -4.068   4.027  0.00  0.00     0.001 A 
ATOM     32  C19 <0> d          -2.877  -3.514   2.861  0.00  0.00     0.014 A 
BRANCH  28  33
ATOM     33  O2  <0> d          -5.854  -3.722   0.745  0.00  0.00    -0.355 OA
ATOM     34  C24 <0> d          -7.194  -4.193   0.896  0.00  0.00     0.210 C 
ENDBRANCH  28  33
ENDBRANCH  26  27
ENDBRANCH  24  25
ENDBRANCH  21  24
BRANCH  22  35
ATOM     35  C26 <0> d           1.210  -1.524   0.143  0.00  0.00     0.072 A 
ATOM     36  S1  <0> d           0.743  -3.243   0.039  0.00  0.00    -0.097 SA
ATOM     37  C29 <0> d           2.272  -3.953   0.440  0.00  0.00     0.050 A 
ATOM     38  C28 <0> d           3.074  -2.873   0.637  0.00  0.00     0.009 A 
ATOM     39  C27 <0> d           2.549  -1.613   0.490  0.00  0.00     0.025 A 
ENDBRANCH  22  35
ENDBRANCH   1  21
TORSDOF 9
