REMARK  2 active torsions:
REMARK  status: ('A' for Active; 'I' for Inactive)
REMARK    1  A    between atoms: C2_2  and  C3_3 
REMARK    2  A    between atoms: N3_7  and  C5_8 
ROOT
ATOM      1  C3  <0> d           0.707  -0.490  -1.238  0.00  0.00     0.131 A 
ATOM      2  N1  <0> d           0.156  -0.743  -2.391  0.00  0.00    -0.134 NA
ATOM      3  N2  <0> d           1.047  -1.139  -3.229  0.00  0.00    -0.122 NA
ATOM      4  C4  <0> d           2.225  -1.160  -2.650  0.00  0.00     0.203 A 
ATOM      5  N3  <0> d           2.046  -0.741  -1.363  0.00  0.00    -0.304 N 
ATOM      6  S1  <0> d           3.750  -1.632  -3.396  0.00  0.00    -0.009 SA
ENDROOT
BRANCH   5   7
ATOM      7  C5  <0> d           3.074  -0.595  -0.329  0.00  0.00     0.121 C 
ATOM      8  C8  <0> d           4.179   0.376  -0.793  0.00  0.00     0.260 C 
ATOM      9  N4  <0> d           5.468  -0.181  -0.332  0.00  0.00    -0.073 N 
ATOM     10  C7  <0> d           5.202  -1.428   0.415  0.00  0.00     0.236 C 
ATOM     11  C9  <0> d           6.136   0.789   0.546  0.00  0.00     0.269 C 
ATOM     12  H16 <0> d           6.057  -0.380  -1.127  0.00  0.00     0.279 HD
ATOM     13  C6  <0> d           3.838  -1.929  -0.123  0.00  0.00     0.055 C 
ENDBRANCH   5   7
BRANCH   1  14
ATOM     14  C2  <0> d           0.002  -0.004   0.002  0.00  0.00     0.076 C 
ATOM     15  C1  <0> d          -0.019   1.526   0.010  0.00  0.00     0.013 C 
ENDBRANCH   1  14
TORSDOF 2
