REMARK  7 active torsions:
REMARK  status: ('A' for Active; 'I' for Inactive)
REMARK    1  A    between atoms: S1_2  and  C2_5 
REMARK    2  A    between atoms: C5_8  and  N1_11 
REMARK       I    between atoms: N1_11  and  C8_12 
REMARK    3  A    between atoms: C8_12  and  C9_14 
REMARK    4  A    between atoms: C9_14  and  S2_15 
REMARK    5  A    between atoms: S2_15  and  C10_16 
REMARK    6  A    between atoms: C11_19  and  C15_24 
REMARK    7  A    between atoms: N4_20  and  C12_21 
ROOT
ATOM      1  C10 <0> d          -4.062   5.812   0.089  0.00  0.00     0.192 A 
ATOM      2  N2  <0> d          -2.989   6.561   0.193  0.00  0.00    -0.122 NA
ATOM      3  N3  <0> d          -1.936   5.826   0.208  0.00  0.00    -0.128 NA
ATOM      4  C11 <0> d          -2.271   4.559   0.116  0.00  0.00     0.167 A 
ATOM      5  N4  <0> d          -3.644   4.511   0.031  0.00  0.00    -0.302 N 
ENDROOT
BRANCH   1   6
ATOM      6  S2  <0> d          -5.730   6.377   0.029  0.00  0.00    -0.081 SA
BRANCH   6   7
ATOM      7  C9  <0> d          -5.461   8.163   0.149  0.00  0.00     0.185 C 
BRANCH   7   8
ATOM      8  C8  <0> d          -6.789   8.874   0.116  0.00  0.00     0.231 C 
ATOM      9  N1  <0> d          -6.836  10.219   0.192  0.00  0.00    -0.327 N 
ATOM     10  H9  <0> d          -6.014  10.734   0.185  0.00  0.00     0.169 HD
ATOM     11  O3  <0> d          -7.817   8.237   0.021  0.00  0.00    -0.272 OA
BRANCH   9  12
ATOM     12  C5  <0> d          -8.070  10.873   0.281  0.00  0.00     0.034 A 
ATOM     13  C4  <0> d          -9.119  10.287   0.977  0.00  0.00     0.031 A 
ATOM     14  C3  <0> d         -10.336  10.935   1.063  0.00  0.00     0.025 A 
ATOM     15  C2  <0> d         -10.510  12.165   0.456  0.00  0.00     0.059 A 
ATOM     16  C7  <0> d          -9.467  12.751  -0.238  0.00  0.00     0.025 A 
ATOM     17  C6  <0> d          -8.246  12.111  -0.323  0.00  0.00     0.031 A 
BRANCH  15  18
ATOM     18  S1  <0> d         -12.064  12.988   0.568  0.00  0.00     0.171 S 
ATOM     19  C1  <0> d         -11.946  14.005   2.066  0.00  0.00     0.167 C 
ATOM     20  O1  <0> d         -12.118  13.818  -0.584  0.00  0.00    -0.223 OA
ATOM     21  O2  <0> d         -13.013  11.947   0.756  0.00  0.00    -0.223 OA
ENDBRANCH  15  18
ENDBRANCH   9  12
ENDBRANCH   7   8
ENDBRANCH   6   7
ENDBRANCH   1   6
BRANCH   5  22
ATOM     22  C12 <0> d          -4.482   3.316  -0.093  0.00  0.00     0.094 A 
ATOM     23  C14 <0> d          -5.439   3.002   1.058  0.00  0.00     0.028 A 
ATOM     24  C13 <0> d          -5.987   3.524  -0.273  0.00  0.00     0.028 A 
ENDBRANCH   5  22
BRANCH   4  25
ATOM     25  C15 <0> d          -1.349   3.406   0.100  0.00  0.00     0.040 A 
ATOM     26  C18 <0> d           0.122   3.456   0.066  0.00  0.00     0.006 A 
ATOM     27  C17 <0> d           0.556   2.119   0.061  0.00  0.00     0.043 A 
ATOM     28  C19 <0> d           1.054   4.492   0.039  0.00  0.00     0.014 A 
ATOM     29  N5  <0> d          -0.568   1.321   0.090  0.00  0.00    -0.364 N 
ATOM     30  C22 <0> d           1.919   1.844   0.030  0.00  0.00     0.030 A 
ATOM     31  C16 <0> d          -1.694   2.092   0.107  0.00  0.00     0.104 A 
ATOM     32  H1  <0> d          -0.559   0.351   0.093  0.00  0.00     0.165 HD
ATOM     33  C21 <0> d           2.829   2.879   0.004  0.00  0.00     0.002 A 
ATOM     34  C20 <0> d           2.399   4.198   0.009  0.00  0.00     0.001 A 
ENDBRANCH   4  25
TORSDOF 7
