REMARK  4 active torsions:
REMARK  status: ('A' for Active; 'I' for Inactive)
REMARK    1  A    between atoms: C3_3  and  S1_9 
REMARK    2  A    between atoms: C6_6  and  N1_7 
REMARK    3  A    between atoms: S1_9  and  N2_12 
REMARK    4  A    between atoms: C9_15  and  N3_17 
ROOT
ATOM      1  S1  <0> d           3.890   2.321  -0.023  0.00  0.00     0.262 S 
ATOM      2  O1  <0> d           4.707   1.650  -0.972  0.00  0.00    -0.200 OA
ATOM      3  O2  <0> d           3.584   3.705  -0.125  0.00  0.00    -0.200 OA
ENDROOT
BRANCH   1   4
ATOM      4  C3  <0> d           2.349   1.467   0.008  0.00  0.00     0.101 A 
ATOM      5  C2  <0> d           1.164   2.179  -0.026  0.00  0.00     0.029 A 
ATOM      6  C1  <0> d          -0.045   1.513  -0.002  0.00  0.00     0.030 A 
ATOM      7  C6  <0> d          -0.072   0.125   0.057  0.00  0.00     0.027 A 
ATOM      8  C5  <0> d           1.120  -0.589   0.091  0.00  0.00     0.054 A 
ATOM      9  C4  <0> d           2.327   0.084   0.067  0.00  0.00     0.059 A 
ATOM     10 Cl1  <0> d           3.817  -0.806   0.111  0.00  0.00    -0.083 Cl
BRANCH   7  11
ATOM     11  N1  <0> d          -1.293  -0.551   0.082  0.00  0.00    -0.399 N 
ATOM     12  H5  <0> d          -2.125  -0.052   0.058  0.00  0.00     0.156 HD
ATOM     13  H6  <0> d          -1.311  -1.520   0.123  0.00  0.00     0.156 HD
ENDBRANCH   7  11
ENDBRANCH   1   4
BRANCH   1  14
ATOM     14  N2  <0> d           4.602   2.101   1.455  0.00  0.00    -0.305 N 
ATOM     15  C10 <0> d           5.620   1.089   1.774  0.00  0.00     0.168 C 
ATOM     16  C9  <0> d           5.968   1.243   3.269  0.00  0.00     0.208 C 
ATOM     17  C8  <0> d           4.712   1.950   3.844  0.00  0.00     0.055 C 
ATOM     18  C7  <0> d           4.315   2.882   2.672  0.00  0.00     0.137 C 
BRANCH  16  19
ATOM     19  N3  <0> d           6.158  -0.071   3.897  0.00  0.00    -0.065 N 
ATOM     20  C14 <0> d           7.335  -0.736   3.310  0.00  0.00     0.235 C 
ATOM     21  C13 <0> d           8.328  -1.009   4.460  0.00  0.00     0.029 C 
ATOM     22  C12 <0> d           7.418  -0.998   5.716  0.00  0.00     0.029 C 
ATOM     23  C11 <0> d           6.388   0.100   5.348  0.00  0.00     0.235 C 
ATOM     24  H21 <0> d           5.338  -0.640   3.751  0.00  0.00     0.280 HD
ENDBRANCH  16  19
ENDBRANCH   1  14
TORSDOF 4
