REMARK  3 active torsions:
REMARK  status: ('A' for Active; 'I' for Inactive)
REMARK    1  A    between atoms: C6_6  and  N1_8 
REMARK    2  A    between atoms: C9_11  and  C10_12 
REMARK       I    between atoms: N3_16  and  C15_19 
REMARK    3  A    between atoms: C15_19  and  C16_21 
ROOT
ATOM      1  N1  <0> d           1.086  -2.956   2.551  0.00  0.00    -0.254 N 
ATOM      2  C8  <0> d           0.269  -4.025   2.643  0.00  0.00     0.271 A 
ATOM      3  O1  <0> d          -0.740  -4.100   1.967  0.00  0.00    -0.266 OA
ATOM      4  C9  <0> d           0.632  -5.101   3.582  0.00  0.00     0.116 A 
ATOM      5  C20 <0> d           1.873  -4.923   4.358  0.00  0.00     0.264 A 
ATOM      6  O4  <0> d           2.238  -5.768   5.154  0.00  0.00    -0.267 OA
ATOM      7  N4  <0> d           2.592  -3.799   4.162  0.00  0.00    -0.299 N 
ATOM      8  C21 <0> d           2.204  -2.863   3.285  0.00  0.00     0.188 A 
ATOM      9  S1  <0> d           3.183  -1.472   3.097  0.00  0.00    -0.040 SA
ATOM     10  H20 <0> d           3.411  -3.667   4.665  0.00  0.00     0.171 HD
ENDROOT
BRANCH   4  11
ATOM     11  C10 <0> d          -0.156  -6.226   3.730  0.00  0.00     0.108 C 
ATOM     12  N2  <0> d          -0.221  -6.853   4.922  0.00  0.00    -0.386 N 
ATOM     13  C14 <0> d          -0.301  -6.080   6.170  0.00  0.00     0.142 C 
ATOM     14  C11 <0> d          -0.205  -8.321   4.997  0.00  0.00     0.142 C 
ATOM     15  C13 <0> d           0.839  -6.512   7.093  0.00  0.00     0.146 C 
ATOM     16  N3  <0> d           0.854  -7.980   7.168  0.00  0.00    -0.343 N 
ATOM     17  C12 <0> d           0.940  -8.752   5.921  0.00  0.00     0.146 C 
ATOM     18  C15 <0> d           0.790  -8.606   8.360  0.00  0.00     0.277 C 
ATOM     19  O2  <0> d           0.795  -7.957   9.389  0.00  0.00    -0.265 OA
BRANCH  18  20
ATOM     20  C16 <0> d           0.714 -10.069   8.416  0.00  0.00     0.142 A 
ATOM     21  O3  <0> d           0.811 -10.909   7.365  0.00  0.00    -0.317 OA
ATOM     22  C19 <0> d           0.698 -12.173   7.793  0.00  0.00     0.143 A 
ATOM     23  C18 <0> d           0.518 -12.164   9.132  0.00  0.00     0.027 A 
ATOM     24  C17 <0> d           0.526 -10.821   9.541  0.00  0.00     0.045 A 
ENDBRANCH  18  20
ENDBRANCH   4  11
BRANCH   1  25
ATOM     25  C6  <0> d           0.762  -1.921   1.664  0.00  0.00     0.045 A 
ATOM     26  C5  <0> d          -0.427  -1.221   1.816  0.00  0.00     0.030 A 
ATOM     27  C4  <0> d          -0.744  -0.201   0.940  0.00  0.00     0.003 A 
ATOM     28  C3  <0> d           0.123   0.123  -0.088  0.00  0.00     0.007 A 
ATOM     29  C2  <0> d           1.308  -0.572  -0.242  0.00  0.00    -0.060 A 
ATOM     30  C1  <0> d           2.249  -0.215  -1.363  0.00  0.00     0.048 C 
ATOM     31  C7  <0> d           1.628  -1.596   0.628  0.00  0.00     0.037 A 
ENDBRANCH   1  25
TORSDOF 3
