REMARK  6 active torsions:
REMARK  status: ('A' for Active; 'I' for Inactive)
REMARK    1  A    between atoms: O1_2  and  C2_3 
REMARK    2  A    between atoms: C2_3  and  C3_4 
REMARK    3  A    between atoms: N1_8  and  C11_17 
REMARK    4  A    between atoms: C6_9  and  N3_11 
REMARK    5  A    between atoms: C11_17  and  C12_18 
REMARK       I    between atoms: C12_18  and  N4_20 
REMARK    6  A    between atoms: N4_20  and  C13_21 
ROOT
ATOM      1  C3  <0> d          -1.072  -2.099   0.029  0.00  0.00     0.082 A 
ATOM      2  C4  <0> d          -1.567  -2.823   1.074  0.00  0.00     0.105 A 
ATOM      3  C5  <0> d          -1.514  -4.227   1.014  0.00  0.00     0.264 A 
ATOM      4  O2  <0> d          -1.948  -4.906   1.930  0.00  0.00    -0.267 OA
ATOM      5  N1  <0> d          -0.974  -4.810  -0.078  0.00  0.00    -0.137 N 
ATOM      6  C6  <0> d          -0.496  -4.036  -1.090  0.00  0.00     0.708 A 
ATOM      7  N2  <0> d          -0.554  -2.720  -1.028  0.00  0.00    -0.067 NA
ENDROOT
BRANCH   5   8
ATOM      8  C11 <0> d          -0.903  -6.270  -0.173  0.00  0.00     0.253 C 
BRANCH   8   9
ATOM      9  C12 <0> d          -2.200  -6.801  -0.729  0.00  0.00     0.237 C 
ATOM     10  O4  <0> d          -3.095  -6.035  -1.018  0.00  0.00    -0.272 OA
ATOM     11  N4  <0> d          -2.365  -8.127  -0.906  0.00  0.00    -0.351 N 
ATOM     12  H18 <0> d          -1.649  -8.739  -0.675  0.00  0.00     0.163 HD
BRANCH  11  13
ATOM     13  C13 <0> d          -3.625  -8.643  -1.446  0.00  0.00     0.118 C 
ATOM     14  C17 <0> d          -3.577  -8.665  -2.959  0.00  0.00    -0.029 A 
ATOM     15  C16 <0> d          -3.337  -9.957  -3.397  0.00  0.00    -0.050 A 
ATOM     16  C18 <0> d          -3.731  -7.641  -3.877  0.00  0.00     0.010 A 
ATOM     17  C15 <0> d          -3.209 -10.886  -2.209  0.00  0.00     0.041 C 
ATOM     18  C21 <0> d          -3.252 -10.219  -4.754  0.00  0.00     0.007 A 
ATOM     19  C14 <0> d          -3.826 -10.113  -1.024  0.00  0.00     0.034 C 
ATOM     20  C20 <0> d          -3.407  -9.190  -5.672  0.00  0.00     0.001 A 
ATOM     21  C19 <0> d          -3.646  -7.902  -5.231  0.00  0.00     0.001 A 
ENDBRANCH  11  13
ENDBRANCH   8   9
ENDBRANCH   5   8
BRANCH   6  22
ATOM     22  N3  <0> d           0.050  -4.634  -2.194  0.00  0.00    -0.212 N 
ATOM     23  C10 <0> d           1.485  -4.956  -2.249  0.00  0.00     0.167 C 
ATOM     24  C9  <0> d           2.058  -4.405  -3.555  0.00  0.00     0.188 C 
ATOM     25  O3  <0> d           1.261  -4.863  -4.651  0.00  0.00    -0.388 OA
ATOM     26  C8  <0> d          -0.095  -4.412  -4.616  0.00  0.00     0.188 C 
ATOM     27  C7  <0> d          -0.780  -4.968  -3.362  0.00  0.00     0.167 C 
ENDBRANCH   6  22
BRANCH   1  28
ATOM     28  C2  <0> d          -1.117  -0.593   0.069  0.00  0.00     0.227 C 
BRANCH  28  29
ATOM     29  O1  <0> d           0.216  -0.077   0.097  0.00  0.00    -0.390 OA
ATOM     30  C1  <0> d           0.286   1.349   0.136  0.00  0.00     0.201 C 
ENDBRANCH  28  29
ENDBRANCH   1  28
TORSDOF 6
