REMARK  6 active torsions:
REMARK  status: ('A' for Active; 'I' for Inactive)
REMARK    1  A    between atoms: C5_5  and  S1_8 
REMARK    2  A    between atoms: S1_8  and  N1_11 
REMARK    3  A    between atoms: N1_11  and  C8_12 
REMARK    4  A    between atoms: C9_13  and  N4_22 
REMARK    5  A    between atoms: N4_22  and  C16_23 
REMARK    6  A    between atoms: C21_28  and  O3_29 
ROOT
ATOM      1  C8  <0> d           1.912  -6.374  -0.142  0.00  0.00     0.182 A 
ATOM      2  C9  <0> d           3.389  -6.683  -0.043  0.00  0.00     0.256 A 
ATOM      3  N2  <0> d           3.790  -8.095   0.060  0.00  0.00    -0.361 N 
ATOM      4  C10 <0> d           2.859  -9.008   0.062  0.00  0.00     0.059 A 
ATOM      5  C11 <0> d           3.208 -10.433   0.164  0.00  0.00     0.031 A 
ATOM      6  C12 <0> d           2.215 -11.350   0.163  0.00  0.00     0.002 A 
ATOM      7  C13 <0> d           0.864 -10.976   0.067  0.00  0.00     0.002 A 
ATOM      8  C14 <0> d           0.468  -9.688  -0.029  0.00  0.00     0.034 A 
ATOM      9  C15 <0> d           1.425  -8.642  -0.037  0.00  0.00     0.085 A 
ATOM     10  N3  <0> d           1.032  -7.388  -0.127  0.00  0.00    -0.227 NA
ATOM     11  H23 <0> d           4.726  -8.341   0.126  0.00  0.00     0.162 HD
ENDROOT
BRANCH   1  12
ATOM     12  N1  <0> d           1.500  -5.144  -0.236  0.00  0.00    -0.140 NA
BRANCH  12  13
ATOM     13  S1  <0> d          -0.120  -4.820  -0.336  0.00  0.00     0.285 S 
ATOM     14  O1  <0> d          -0.690  -5.206   0.907  0.00  0.00    -0.198 OA
ATOM     15  O2  <0> d          -0.565  -5.353  -1.576  0.00  0.00    -0.198 OA
BRANCH  13  16
ATOM     16  C5  <0> d          -0.295  -3.070  -0.448  0.00  0.00     0.081 A 
ATOM     17  C4  <0> d          -0.303  -2.454  -1.686  0.00  0.00     0.026 A 
ATOM     18  C3  <0> d          -0.441  -1.081  -1.774  0.00  0.00     0.008 A 
ATOM     19  C2  <0> d          -0.571  -0.325  -0.624  0.00  0.00    -0.062 A 
ATOM     20  C1  <0> d          -0.722   1.172  -0.720  0.00  0.00     0.048 C 
ATOM     21  C7  <0> d          -0.558  -0.940   0.613  0.00  0.00     0.008 A 
ATOM     22  C6  <0> d          -0.424  -2.313   0.701  0.00  0.00     0.026 A 
ENDBRANCH  13  16
ENDBRANCH  12  13
ENDBRANCH   1  12
BRANCH   2  23
ATOM     23  N4  <0> d           4.044  -6.119  -1.226  0.00  0.00    -0.360 N 
ATOM     24  H13 <0> d           3.639  -6.224  -2.101  0.00  0.00     0.162 HD
BRANCH  23  25
ATOM     25  C16 <0> d           5.254  -5.428  -1.093  0.00  0.00     0.064 A 
ATOM     26  C21 <0> d           5.817  -4.786  -2.194  0.00  0.00     0.094 A 
ATOM     27  C20 <0> d           7.012  -4.100  -2.056  0.00  0.00     0.039 A 
ATOM     28  C19 <0> d           7.649  -4.061  -0.829  0.00  0.00     0.009 A 
ATOM     29  C18 <0> d           7.094  -4.702   0.263  0.00  0.00    -0.060 A 
ATOM     30  C17 <0> d           5.899  -5.385   0.134  0.00  0.00     0.038 A 
ATOM     31  C23 <0> d           7.793  -4.655   1.597  0.00  0.00     0.048 C 
BRANCH  26  32
ATOM     32  O3  <0> d           5.192  -4.830  -3.401  0.00  0.00    -0.354 OA
ATOM     33  C22 <0> d           5.827  -4.149  -4.486  0.00  0.00     0.210 C 
ENDBRANCH  26  32
ENDBRANCH  23  25
ENDBRANCH   2  23
TORSDOF 6
