REMARK  4 active torsions:
REMARK  status: ('A' for Active; 'I' for Inactive)
REMARK       I    between atoms: N1_2  and  C2_3 
REMARK       I    between atoms: C2_3  and  N2_5 
REMARK       I    between atoms: N2_5  and  C3_6 
REMARK    1  A    between atoms: C3_6  and  C4_8 
REMARK    2  A    between atoms: C4_8  and  N3_9 
REMARK    3  A    between atoms: N3_9  and  C6_11 
REMARK    4  A    between atoms: C6_11  and  C7_12 
ROOT
ATOM      1  C4  <0> d           2.382   5.067  -1.426  0.00  0.00     0.337 C 
ENDROOT
BRANCH   1   2
ATOM      2  C3  <0> d           2.710   5.421  -2.853  0.00  0.00     0.251 C 
ATOM      3  N2  <0> d           3.287   6.605  -3.139  0.00  0.00    -0.278 N 
ATOM      4  C2  <0> d           3.581   6.921  -4.416  0.00  0.00     0.322 C 
ATOM      5  H5  <0> d           3.518   7.313  -2.330  0.00  0.00     0.173 HD
ATOM      6  N1  <0> d           4.158   8.105  -4.702  0.00  0.00    -0.347 N 
ATOM      7  O1  <0> d           3.325   6.138  -5.310  0.00  0.00    -0.247 OA
ATOM      8  C1  <0> d           4.477   8.448  -6.090  0.00  0.00     0.151 C 
ATOM      9  H4  <0> d           4.389   8.813  -3.893  0.00  0.00     0.163 HD
ATOM     10  O2  <0> d           2.456   4.639  -3.745  0.00  0.00    -0.271 OA
ENDBRANCH   1   2
BRANCH   1  11
ATOM     11  N3  <0> d           1.765   3.735  -1.380  0.00  0.00    -0.061 N 
ATOM     12  C5  <0> d           0.457   3.737  -2.050  0.00  0.00     0.270 C 
ATOM     13  H15 <0> d           2.422   3.040  -1.924  0.00  0.00     0.280 HD
BRANCH  11  14
ATOM     14  C6  <0> d           1.648   3.256   0.003  0.00  0.00     0.299 C 
BRANCH  14  15
ATOM     15  C7  <0> d           1.244   1.804  -0.000  0.00  0.00     0.080 A 
ATOM     16  O3  <0> d          -0.016   1.339   0.009  0.00  0.00    -0.306 OA
ATOM     17  C10 <0> d           0.002  -0.004   0.002  0.00  0.00     0.121 A 
ATOM     18  C9  <0> d           1.285  -0.412  -0.012  0.00  0.00     0.048 A 
ATOM     19 Br1  <0> d          -1.516  -1.131   0.011  0.00  0.00    -0.023 Br
ATOM     20  C8  <0> d           2.085   0.754  -0.014  0.00  0.00     0.038 A 
ENDBRANCH  14  15
ENDBRANCH  11  14
ENDBRANCH   1  11
TORSDOF 4
