REMARK  2 active torsions:
REMARK  status: ('A' for Active; 'I' for Inactive)
REMARK    1  A    between atoms: C11_13  and  S1_18 
REMARK    2  A    between atoms: S1_18  and  N2_21 
ROOT
ATOM      1  C1  <0> d          -0.018   1.503   0.010  0.00  0.00     0.048 C 
ATOM      2  C2  <0> d           0.002  -0.004   0.002  0.00  0.00    -0.060 A 
ATOM      3  C3  <0> d           0.006  -0.688  -1.200  0.00  0.00     0.009 A 
ATOM      4  C4  <0> d           0.037  -2.069  -1.208  0.00  0.00     0.040 A 
ATOM      5  C5  <0> d           0.058  -2.775  -0.013  0.00  0.00     0.102 A 
ATOM      6  C6  <0> d           0.032  -2.091   1.195  0.00  0.00     0.069 A 
ATOM      7  C7  <0> d           0.023  -0.700   1.195  0.00  0.00     0.039 A 
ATOM      8  N1  <0> d          -0.017  -2.764   2.415  0.00  0.00    -0.320 N 
ATOM      9  C8  <0> d           0.641  -3.873   2.726  0.00  0.00     0.259 C 
ATOM     10  O1  <0> d           0.493  -4.319   3.847  0.00  0.00    -0.267 OA
ATOM     11  C9  <0> d           1.534  -4.604   1.816  0.00  0.00     0.067 A 
ATOM     12  C10 <0> d           2.709  -5.178   2.310  0.00  0.00     0.045 A 
ATOM     13  C11 <0> d           3.538  -5.885   1.465  0.00  0.00     0.080 A 
ATOM     14  C12 <0> d           3.211  -6.031   0.127  0.00  0.00     0.028 A 
ATOM     15  C13 <0> d           2.058  -5.460  -0.375  0.00  0.00     0.040 A 
ATOM     16  C14 <0> d           1.218  -4.736   0.460  0.00  0.00     0.092 A 
ATOM     17  O2  <0> d           0.124  -4.130  -0.052  0.00  0.00    -0.307 OA
ATOM     18  H7  <0> d          -0.588  -2.386   3.102  0.00  0.00     0.169 HD
ENDROOT
BRANCH  13  19
ATOM     19  S1  <0> d           5.020  -6.605   2.090  0.00  0.00     0.260 S 
ATOM     20  O3  <0> d           5.898  -6.752   0.982  0.00  0.00    -0.200 OA
ATOM     21  O4  <0> d           5.374  -5.864   3.249  0.00  0.00    -0.200 OA
BRANCH  19  22
ATOM     22  N2  <0> d           4.643  -8.134   2.602  0.00  0.00    -0.315 N 
ATOM     23  C15 <0> d           4.743  -9.263   1.673  0.00  0.00     0.162 C 
ATOM     24  C16 <0> d           4.209  -8.358   3.983  0.00  0.00     0.162 C 
ENDBRANCH  19  22
ENDBRANCH  13  19
TORSDOF 2
