REMARK  2 active torsions:
REMARK  status: ('A' for Active; 'I' for Inactive)
REMARK    1  A    between atoms: C10_14  and  C14_21 
REMARK    2  A    between atoms: C12_16  and  N2_18 
ROOT
ATOM      1  C1  <0> d          -0.013   1.086   0.008  0.00  0.00     0.170 C 
ATOM      2  N1  <0> d          -0.698   1.558   1.213  0.00  0.00    -0.275 N 
ATOM      3  C2  <0> d          -1.221   0.664   2.155  0.00  0.00     0.057 A 
ATOM      4  C3  <0> d          -1.671  -0.576   1.720  0.00  0.00     0.031 A 
ATOM      5  C4  <0> d          -2.200  -1.478   2.622  0.00  0.00     0.002 A 
ATOM      6  C5  <0> d          -2.285  -1.147   3.964  0.00  0.00     0.001 A 
ATOM      7  C6  <0> d          -1.839   0.077   4.409  0.00  0.00     0.016 A 
ATOM      8  C7  <0> d          -1.295   1.002   3.507  0.00  0.00     0.027 A 
ATOM      9  C8  <0> d          -0.813   2.295   4.048  0.00  0.00     0.110 C 
ATOM     10  C9  <0> d          -0.596   3.344   3.261  0.00  0.00     0.106 C 
ATOM     11  S1  <0> d          -0.885   3.183   1.528  0.00  0.00     0.265 S 
ATOM     12  O1  <0> d           0.175   3.859   0.865  0.00  0.00    -0.200 OA
ATOM     13  O2  <0> d          -2.254   3.494   1.308  0.00  0.00    -0.200 OA
ATOM     14  C10 <0> d          -0.109   4.657   3.808  0.00  0.00     0.117 C 
ATOM     15  C11 <0> d          -0.331   4.715   5.295  0.00  0.00     0.087 C 
ATOM     16  C12 <0> d          -0.562   3.576   5.995  0.00  0.00     0.159 C 
ATOM     17  O3  <0> d          -0.595   2.379   5.388  0.00  0.00    -0.291 OA
ATOM     18  C13 <0> d          -0.300   5.976   5.972  0.00  0.00     0.100 C 
ATOM     19  N3  <0> d          -0.276   6.976   6.510  0.00  0.00    -0.191 NA
ENDROOT
BRANCH  14  20
ATOM     20  C14 <0> d           1.364   4.802   3.521  0.00  0.00    -0.026 A 
ATOM     21  C19 <0> d           1.817   5.858   2.751  0.00  0.00     0.018 A 
ATOM     22  C18 <0> d           3.169   5.993   2.491  0.00  0.00     0.019 A 
ATOM     23 Br1  <0> d           0.590   7.120   2.061  0.00  0.00    -0.051 Br
ATOM     24  C17 <0> d           4.065   5.068   2.992  0.00  0.00     0.001 A 
ATOM     25  C16 <0> d           3.611   4.009   3.757  0.00  0.00     0.001 A 
ATOM     26  C15 <0> d           2.260   3.877   4.021  0.00  0.00     0.009 A 
ENDBRANCH  14  20
BRANCH  16  27
ATOM     27  N2  <0> d          -0.766   3.649   7.351  0.00  0.00    -0.379 N 
ATOM     28  H9  <0> d          -0.954   2.732   7.929  0.00  0.00     0.158 HD
ATOM     29  H10 <0> d          -0.741   4.624   7.859  0.00  0.00     0.158 HD
ENDBRANCH  16  27
TORSDOF 2
