REMARK  5 active torsions:
REMARK  status: ('A' for Active; 'I' for Inactive)
REMARK    1  A    between atoms: N1_8  and  C10_13 
REMARK    2  A    between atoms: C9_11  and  N2_12 
REMARK    3  A    between atoms: C10_13  and  C11_14 
REMARK    4  A    between atoms: C11_14  and  C12_15 
REMARK    5  A    between atoms: C12_15  and  N3_16 
ROOT
ATOM      1  C1  <0> d          -0.286   1.496   0.049  0.00  0.00     0.050 C 
ATOM      2  C2  <0> d          -0.231  -0.010   0.035  0.00  0.00    -0.033 A 
ATOM      3  C3  <0> d          -0.422  -0.696  -1.147  0.00  0.00     0.028 A 
ATOM      4  C4  <0> d          -0.374  -2.078  -1.169  0.00  0.00     0.012 A 
ATOM      5  C5  <0> d          -0.130  -2.777   0.001  0.00  0.00     0.031 A 
ATOM      6  C6  <0> d           0.062  -2.095   1.181  0.00  0.00     0.012 A 
ATOM      7  C7  <0> d           0.021  -0.707   1.215  0.00  0.00     0.052 A 
ATOM      8  N1  <0> d           0.249  -0.249   2.514  0.00  0.00    -0.315 N 
ATOM      9  C8  <0> d           0.453  -1.257   3.380  0.00  0.00     0.262 A 
ATOM     10  O1  <0> d           0.673  -1.152   4.568  0.00  0.00    -0.270 OA
ATOM     11  C9  <0> d           0.341  -2.547   2.596  0.00  0.00     0.344 A 
ATOM     12 Br1  <0> d          -0.639  -3.010  -2.793  0.00  0.00    -0.051 Br
ENDROOT
BRANCH   8  13
ATOM     13  C10 <0> d           0.266   1.166   2.890  0.00  0.00     0.134 C 
BRANCH  13  14
ATOM     14  C11 <0> d          -1.146   1.607   3.280  0.00  0.00     0.048 C 
BRANCH  14  15
ATOM     15  C12 <0> d          -1.128   3.086   3.673  0.00  0.00     0.236 C 
BRANCH  15  16
ATOM     16  N3  <0> d          -2.484   3.509   4.048  0.00  0.00    -0.071 N 
ATOM     17  C16 <0> d          -2.508   4.964   4.315  0.00  0.00     0.235 C 
ATOM     18  C15 <0> d          -3.504   5.195   5.467  0.00  0.00     0.029 C 
ATOM     19  C14 <0> d          -4.011   3.786   5.851  0.00  0.00     0.029 C 
ATOM     20  C13 <0> d          -2.891   2.857   5.319  0.00  0.00     0.235 C 
ATOM     21  H23 <0> d          -3.136   3.279   3.313  0.00  0.00     0.279 HD
ENDBRANCH  15  16
ENDBRANCH  14  15
ENDBRANCH  13  14
ENDBRANCH   8  13
BRANCH  11  22
ATOM     22  N2  <0> d           1.610  -3.285   2.660  0.00  0.00     0.096 N 
ATOM     23  H7  <0> d           1.804  -3.590   3.602  0.00  0.00     0.314 HD
ATOM     24  H8  <0> d           1.607  -4.065   2.020  0.00  0.00     0.314 HD
ENDBRANCH  11  22
TORSDOF 5
