REMARK  7 active torsions:
REMARK  status: ('A' for Active; 'I' for Inactive)
REMARK    1  A    between atoms: C2_2  and  C3_3 
REMARK    2  A    between atoms: C2_2  and  N1_21 
REMARK    3  A    between atoms: C3_3  and  C4_4 
REMARK    4  A    between atoms: C6_6  and  O2_19 
REMARK    5  A    between atoms: C7_7  and  O1_11 
REMARK    6  A    between atoms: O1_11  and  C10_12 
REMARK    7  A    between atoms: C10_12  and  C11_13 
ROOT
ATOM      1  C4  <0> d           0.657  -2.014   1.298  0.00  0.00    -0.052 A 
ATOM      2  C5  <0> d          -0.397  -2.621   1.956  0.00  0.00     0.047 A 
ATOM      3  C6  <0> d          -0.477  -4.003   2.009  0.00  0.00     0.103 A 
ATOM      4  C7  <0> d           0.504  -4.779   1.399  0.00  0.00     0.124 A 
ATOM      5  C8  <0> d           1.558  -4.164   0.740  0.00  0.00     0.070 A 
ATOM      6  C9  <0> d           1.629  -2.784   0.687  0.00  0.00     0.034 A 
ATOM      7 Cl1  <0> d           2.785  -5.127  -0.022  0.00  0.00    -0.081 Cl
ENDROOT
BRANCH   4   8
ATOM      8  O1  <0> d           0.430  -6.136   1.449  0.00  0.00    -0.342 OA
BRANCH   8   9
ATOM      9  C10 <0> d          -0.280  -6.786   0.393  0.00  0.00     0.222 C 
BRANCH   9  10
ATOM     10  C11 <0> d          -0.257  -8.277   0.615  0.00  0.00     0.008 A 
ATOM     11  S1  <0> d           0.934  -9.480   0.049  0.00  0.00    -0.103 SA
ATOM     12  C14 <0> d           0.183 -10.934   0.762  0.00  0.00     0.069 A 
ATOM     13  C13 <0> d          -0.913 -10.414   1.368  0.00  0.00     0.018 A 
ATOM     14  C12 <0> d          -1.138  -9.052   1.293  0.00  0.00     0.036 A 
ATOM     15 Br1  <0> d          -2.115 -11.536   2.303  0.00  0.00    -0.051 Br
ENDBRANCH   9  10
ENDBRANCH   8   9
ENDBRANCH   4   8
BRANCH   3  16
ATOM     16  O2  <0> d          -1.513  -4.601   2.657  0.00  0.00    -0.353 OA
ATOM     17  C15 <0> d          -2.483  -3.743   3.260  0.00  0.00     0.210 C 
ENDBRANCH   3  16
BRANCH   1  18
ATOM     18  C3  <0> d           0.742  -0.511   1.242  0.00  0.00     0.071 C 
BRANCH  18  19
ATOM     19  C2  <0> d           0.002  -0.004   0.002  0.00  0.00     0.183 C 
ATOM     20  C1  <0> d          -0.019   1.526   0.010  0.00  0.00     0.040 C 
BRANCH  19  21
ATOM     21  N1  <0> d           0.690  -0.478  -1.207  0.00  0.00    -0.075 N 
ATOM     22  H16 <0> d           1.636  -0.129  -1.214  0.00  0.00     0.274 HD
ATOM     23  H17 <0> d           0.703  -1.487  -1.212  0.00  0.00     0.274 HD
ATOM     24  H18 <0> d           0.202  -0.144  -2.024  0.00  0.00     0.274 HD
ENDBRANCH  19  21
ENDBRANCH  18  19
ENDBRANCH   1  18
TORSDOF 7
