REMARK  5 active torsions:
REMARK  status: ('A' for Active; 'I' for Inactive)
REMARK    1  A    between atoms: N1_6  and  C6_11 
REMARK    2  A    between atoms: C6_11  and  C7_12 
REMARK    3  A    between atoms: C6_11  and  N3_20 
REMARK    4  A    between atoms: C7_12  and  C8_14 
REMARK       I    between atoms: N3_20  and  C14_21 
REMARK    5  A    between atoms: C14_21  and  C15_23 
ROOT
ATOM      1  C6  <0> d           6.224  -1.151   0.345  0.00  0.00     0.273 C 
ENDROOT
BRANCH   1   2
ATOM      2  N1  <0> d           6.355  -1.246  -1.111  0.00  0.00    -0.261 N 
ATOM      3  C4  <0> d           6.179  -0.149  -1.874  0.00  0.00     0.253 A 
ATOM      4  C3  <0> d           6.308  -0.253  -3.280  0.00  0.00     0.099 A 
ATOM      5  O1  <0> d           5.910   0.922  -1.359  0.00  0.00    -0.268 OA
ATOM      6  C2  <0> d           6.606  -1.452  -3.826  0.00  0.00     0.013 A 
ATOM      7  C1  <0> d           6.750  -1.589  -5.320  0.00  0.00     0.068 C 
ATOM      8  N2  <0> d           6.777  -2.541  -3.016  0.00  0.00    -0.337 N 
ATOM      9  C5  <0> d           6.657  -2.428  -1.681  0.00  0.00     0.183 A 
ATOM     10  H1  <0> d           6.994  -3.429  -3.420  0.00  0.00     0.168 HD
ATOM     11  S1  <0> d           6.884  -3.807  -0.693  0.00  0.00    -0.040 SA
ENDBRANCH   1   2
BRANCH   1  12
ATOM     12  C7  <0> d           7.075  -0.016   0.853  0.00  0.00     0.202 C 
ATOM     13  O2  <0> d           6.575   0.867   1.517  0.00  0.00    -0.288 OA
BRANCH  12  14
ATOM     14  C8  <0> d           8.514   0.020   0.544  0.00  0.00     0.014 A 
ATOM     15  C13 <0> d           9.278   1.140   0.887  0.00  0.00     0.015 A 
ATOM     16  C12 <0> d          10.625   1.166   0.595  0.00  0.00     0.001 A 
ATOM     17  C11 <0> d          11.221   0.088  -0.036  0.00  0.00     0.000 A 
ATOM     18  C10 <0> d          10.472  -1.024  -0.378  0.00  0.00     0.001 A 
ATOM     19  C9  <0> d           9.124  -1.067  -0.088  0.00  0.00     0.015 A 
ENDBRANCH  12  14
ENDBRANCH   1  12
BRANCH   1  20
ATOM     20  N3  <0> d           4.822  -0.904   0.694  0.00  0.00    -0.328 N 
ATOM     21  C14 <0> d           4.037  -1.925   1.092  0.00  0.00     0.253 C 
ATOM     22  O3  <0> d           4.492  -3.050   1.162  0.00  0.00    -0.268 OA
ATOM     23  H12 <0> d           4.460  -0.006   0.638  0.00  0.00     0.165 HD
BRANCH  21  24
ATOM     24  C15 <0> d           2.623  -1.676   1.444  0.00  0.00     0.032 A 
ATOM     25  C20 <0> d           2.098  -0.385   1.365  0.00  0.00     0.017 A 
ATOM     26  C19 <0> d           0.778  -0.159   1.696  0.00  0.00     0.001 A 
ATOM     27  C18 <0> d          -0.026  -1.209   2.104  0.00  0.00     0.000 A 
ATOM     28  C17 <0> d           0.489  -2.491   2.184  0.00  0.00     0.001 A 
ATOM     29  C16 <0> d           1.807  -2.730   1.857  0.00  0.00     0.017 A 
ENDBRANCH  21  24
ENDBRANCH   1  20
TORSDOF 5
