REMARK  3 active torsions:
REMARK  status: ('A' for Active; 'I' for Inactive)
REMARK    1  A    between atoms: C2_2  and  C4_4 
REMARK    2  A    between atoms: C4_4  and  C5_5 
REMARK    3  A    between atoms: C8_11  and  C9_12 
ROOT
ATOM      1  C5  <0> d           0.950   2.034   2.311  0.00  0.00     0.099 A 
ATOM      2  N1  <0> d          -0.339   2.188   2.422  0.00  0.00    -0.161 NA
ATOM      3  N2  <0> d          -0.975   2.038   3.635  0.00  0.00    -0.189 N 
ATOM      4  C6  <0> d          -2.369   2.095   3.849  0.00  0.00     0.162 C 
ATOM      5  N3  <0> d          -3.250   1.878   2.907  0.00  0.00    -0.281 NA
ATOM      6  C7  <0> d          -2.738   2.424   5.253  0.00  0.00     0.084 C 
ATOM      7  C8  <0> d          -3.872   3.159   5.555  0.00  0.00     0.058 C 
ATOM      8  C13 <0> d          -1.829   1.923   6.309  0.00  0.00     0.283 C 
ATOM      9  O2  <0> d          -2.232   1.728   7.445  0.00  0.00    -0.265 OA
ATOM     10  N4  <0> d          -0.542   1.689   5.981  0.00  0.00    -0.182 NA
ATOM     11  C14 <0> d          -0.174   1.784   4.728  0.00  0.00     0.201 A 
ATOM     12  S1  <0> d           1.431   1.645   3.988  0.00  0.00    -0.033 SA
ATOM     13  H10 <0> d          -2.955   1.666   2.007  0.00  0.00     0.188 HD
ENDROOT
BRANCH   7  14
ATOM     14  C9  <0> d          -4.064   3.653   6.859  0.00  0.00     0.076 A 
ATOM     15  O1  <0> d          -3.168   3.605   7.868  0.00  0.00    -0.323 OA
ATOM     16  C12 <0> d          -3.696   4.175   8.959  0.00  0.00     0.142 A 
ATOM     17  C11 <0> d          -4.951   4.596   8.676  0.00  0.00     0.027 A 
ATOM     18  C10 <0> d          -5.206   4.272   7.338  0.00  0.00     0.039 A 
ENDBRANCH   7  14
BRANCH   1  19
ATOM     19  C4  <0> d           1.814   2.149   1.081  0.00  0.00     0.072 C 
BRANCH  19  20
ATOM     20  C2  <0> d           0.940   2.502  -0.124  0.00  0.00    -0.017 C 
ATOM     21  C1  <0> d           0.334   3.893   0.075  0.00  0.00     0.010 C 
ATOM     22  C3  <0> d           1.796   2.496  -1.393  0.00  0.00     0.010 C 
ENDBRANCH  19  20
ENDBRANCH   1  19
TORSDOF 3
