REMARK  6 active torsions:
REMARK  status: ('A' for Active; 'I' for Inactive)
REMARK    1  A    between atoms: C2_2  and  C3_3 
REMARK    2  A    between atoms: C3_3  and  C4_4 
REMARK    3  A    between atoms: C4_4  and  C5_5 
REMARK    4  A    between atoms: C5_5  and  C6_6 
REMARK    5  A    between atoms: C5_5  and  N2_17 
REMARK       I    between atoms: C6_6  and  N1_8 
REMARK    6  A    between atoms: N1_8  and  C7_9 
ROOT
ATOM      1  C6  <0> d           1.627  -4.048   2.399  0.00  0.00     0.252 C 
ATOM      2  O1  <0> d           0.868  -4.752   3.030  0.00  0.00    -0.271 OA
ATOM      3  N1  <0> d           2.592  -4.607   1.642  0.00  0.00    -0.324 N 
ATOM      4  H11 <0> d           3.157  -4.048   1.086  0.00  0.00     0.169 HD
ENDROOT
BRANCH   1   5
ATOM      5  C5  <0> d           1.491  -2.548   2.460  0.00  0.00     0.275 C 
BRANCH   5   6
ATOM      6  C4  <0> d           0.750  -2.052   1.216  0.00  0.00     0.042 C 
BRANCH   6   7
ATOM      7  C3  <0> d           0.722  -0.523   1.216  0.00  0.00     0.002 C 
BRANCH   7   8
ATOM      8  C2  <0> d          -0.019  -0.026  -0.027  0.00  0.00    -0.004 C 
ATOM      9  C1  <0> d          -0.047   1.503  -0.028  0.00  0.00     0.005 C 
ENDBRANCH   7   8
ENDBRANCH   6   7
ENDBRANCH   5   6
BRANCH   5  10
ATOM     10  N2  <0> d           0.735  -2.174   3.662  0.00  0.00    -0.066 N 
ATOM     11  H15 <0> d           1.224  -2.501   4.482  0.00  0.00     0.275 HD
ATOM     12  H16 <0> d           0.645  -1.169   3.703  0.00  0.00     0.275 HD
ATOM     13  H17 <0> d          -0.182  -2.593   3.627  0.00  0.00     0.275 HD
ENDBRANCH   5  10
ENDBRANCH   1   5
BRANCH   3  14
ATOM     14  C7  <0> d           2.778  -5.994   1.658  0.00  0.00     0.053 A 
ATOM     15  C12 <0> d           4.055  -6.527   1.530  0.00  0.00     0.037 A 
ATOM     16  C11 <0> d           4.237  -7.896   1.552  0.00  0.00     0.023 A 
ATOM     17 Br1  <0> d           5.544  -5.378   1.334  0.00  0.00    -0.049 Br
ATOM     18  C10 <0> d           3.148  -8.737   1.690  0.00  0.00     0.020 A 
ATOM     19  C9  <0> d           1.874  -8.210   1.812  0.00  0.00     0.013 A 
ATOM     20  C8  <0> d           1.687  -6.841   1.796  0.00  0.00     0.050 A 
ATOM     21 Br2  <0> d           0.389  -9.365   2.000  0.00  0.00    -0.051 Br
ENDBRANCH   3  14
TORSDOF 6
