REMARK  2 active torsions:
REMARK  status: ('A' for Active; 'I' for Inactive)
REMARK    1  A    between atoms: O1_2  and  C2_3 
REMARK    2  A    between atoms: C4_5  and  C6_8 
ROOT
ATOM      1  C6  <0> d           1.144  -4.020  -2.371  0.00  0.00     0.116 A 
ATOM      2  N2  <0> d           0.487  -5.208  -2.235  0.00  0.00    -0.342 N 
ATOM      3  H3  <0> d          -0.009  -5.511  -1.458  0.00  0.00     0.167 HD
ATOM      4  C7  <0> d           0.661  -5.879  -3.396  0.00  0.00     0.067 A 
ATOM      5  C8  <0> d           1.405  -5.085  -4.232  0.00  0.00     0.038 A 
ATOM      6  N3  <0> d           1.680  -3.965  -3.565  0.00  0.00    -0.345 N 
ATOM      7  C9  <0> d           1.773  -5.473  -5.639  0.00  0.00     0.064 C 
ATOM      8  C10 <0> d           1.909  -6.994  -5.768  0.00  0.00     0.053 C 
ATOM      9  C11 <0> d           0.847  -7.697  -4.998  0.00  0.00    -0.005 A 
ATOM     10  C12 <0> d           0.223  -7.228  -3.854  0.00  0.00     0.006 A 
ATOM     11  C13 <0> d          -0.730  -8.060  -3.274  0.00  0.00     0.022 A 
ATOM     12  C14 <0> d          -1.012  -9.254  -3.846  0.00  0.00     0.051 A 
ATOM     13  S1  <0> d           0.078  -9.267  -5.262  0.00  0.00    -0.105 SA
ATOM     14  H18 <0> d           2.200  -3.223  -3.910  0.00  0.00     0.167 HD
ENDROOT
BRANCH   1  15
ATOM     15  C4  <0> d           1.233  -2.943  -1.321  0.00  0.00     0.290 C 
ATOM     16  C3  <0> d           0.055  -1.955  -1.462  0.00  0.00     0.077 C 
ATOM     17  C2  <0> d           0.652  -0.570  -1.138  0.00  0.00     0.151 C 
ATOM     18  C5  <0> d           2.141  -0.835  -0.830  0.00  0.00     0.302 C 
ATOM     19  N1  <0> d           2.446  -2.111  -1.530  0.00  0.00     0.098 N 
ATOM     20  H9  <0> d           3.261  -2.555  -1.136  0.00  0.00     0.317 HD
BRANCH  17  21
ATOM     21  O1  <0> d           0.002  -0.004   0.002  0.00  0.00    -0.389 OA
ATOM     22  C1  <0> d          -0.017   1.425   0.010  0.00  0.00     0.202 C 
ENDBRANCH  17  21
ENDBRANCH   1  15
TORSDOF 2
