REMARK  6 active torsions:
REMARK  status: ('A' for Active; 'I' for Inactive)
REMARK    1  A    between atoms: C4_4  and  S1_12 
REMARK    2  A    between atoms: S1_12  and  C11_13 
REMARK    3  A    between atoms: C11_13  and  C12_14 
REMARK    4  A    between atoms: C12_14  and  C13_15 
REMARK       I    between atoms: C13_15  and  N2_17 
REMARK    5  A    between atoms: N2_17  and  C14_18 
REMARK    6  A    between atoms: C15_19  and  C22_27 
REMARK       I    between atoms: C22_27  and  N3_29 
ROOT
ATOM      1  C13 <0> d          -6.209  -0.881   0.055  0.00  0.00     0.223 C 
ATOM      2  O1  <0> d          -5.790   0.257   0.058  0.00  0.00    -0.273 OA
ATOM      3  N2  <0> d          -7.537  -1.110   0.066  0.00  0.00    -0.320 N 
ATOM      4  H13 <0> d          -7.918  -2.142   0.064  0.00  0.00     0.169 HD
ENDROOT
BRANCH   1   5
ATOM      5  C12 <0> d          -5.245  -2.040   0.039  0.00  0.00     0.113 C 
BRANCH   5   6
ATOM      6  C11 <0> d          -3.810  -1.509   0.029  0.00  0.00     0.090 C 
BRANCH   6   7
ATOM      7  S1  <0> d          -2.653  -2.901   0.010  0.00  0.00    -0.110 SA
BRANCH   7   8
ATOM      8  C4  <0> d          -1.123  -2.026   0.001  0.00  0.00     0.094 A 
ATOM      9  C3  <0> d           0.079  -2.749  -0.015  0.00  0.00     0.046 A 
ATOM     10  C2  <0> d           1.269  -2.086  -0.022  0.00  0.00    -0.047 A 
ATOM     11  C1  <0> d           2.573  -2.840  -0.038  0.00  0.00     0.049 C 
ATOM     12  C6  <0> d           1.249  -0.676  -0.013  0.00  0.00    -0.001 A 
ATOM     13  C5  <0> d           0.002  -0.004   0.002  0.00  0.00     0.069 A 
ATOM     14  C7  <0> d           2.438   0.069  -0.020  0.00  0.00     0.014 A 
ATOM     15  N1  <0> d          -1.135  -0.708   0.009  0.00  0.00    -0.241 NA
ATOM     16  C10 <0> d          -0.017   1.401   0.010  0.00  0.00     0.032 A 
ATOM     17  C9  <0> d           1.156   2.093   0.002  0.00  0.00     0.002 A 
ATOM     18  C8  <0> d           2.380   1.430  -0.012  0.00  0.00     0.001 A 
ENDBRANCH   7   8
ENDBRANCH   6   7
ENDBRANCH   5   6
ENDBRANCH   1   5
BRANCH   3  19
ATOM     19  C14 <0> d          -8.424  -0.044   0.080  0.00  0.00     0.093 A 
ATOM     20  S2  <0> d          -8.069   1.652   0.086  0.00  0.00    -0.075 SA
ATOM     21  C17 <0> d          -9.720   2.290   0.104  0.00  0.00    -0.008 A 
ATOM     22  C16 <0> d         -10.513   1.196   0.106  0.00  0.00    -0.026 A 
ATOM     23  C18 <0> d         -10.158   3.722   0.115  0.00  0.00     0.047 C 
ATOM     24  C15 <0> d          -9.811  -0.076   0.087  0.00  0.00     0.072 A 
ATOM     25  C21 <0> d         -12.031   1.327   0.121  0.00  0.00     0.041 C 
ATOM     26  C20 <0> d         -12.399   2.736   0.588  0.00  0.00     0.005 C 
ATOM     27  C19 <0> d         -11.649   3.775  -0.250  0.00  0.00     0.005 C 
BRANCH  24  28
ATOM     28  C22 <0> d         -10.542  -1.348   0.081  0.00  0.00     0.252 C 
ATOM     29  O2  <0> d         -10.840  -1.884   1.132  0.00  0.00    -0.268 OA
ATOM     30  N3  <0> d         -10.884  -1.922  -1.090  0.00  0.00    -0.366 N 
ATOM     31  H22 <0> d         -11.432  -2.876  -1.095  0.00  0.00     0.159 HD
ATOM     32  H23 <0> d         -10.614  -1.438  -2.040  0.00  0.00     0.159 HD
ENDBRANCH  24  28
ENDBRANCH   3  19
TORSDOF 6
