REMARK  5 active torsions:
REMARK  status: ('A' for Active; 'I' for Inactive)
REMARK    1  A    between atoms: C5_5  and  O1_8 
REMARK    2  A    between atoms: O1_8  and  C8_9 
REMARK    3  A    between atoms: C8_9  and  C9_10 
REMARK       I    between atoms: C9_10  and  N1_12 
REMARK    4  A    between atoms: N1_12  and  C10_13 
REMARK    5  A    between atoms: C11_14  and  C18_23 
REMARK       I    between atoms: C18_23  and  N3_25 
ROOT
ATOM      1  C10 <0> d           0.123  -8.478   1.918  0.00  0.00     0.093 A 
ATOM      2  C11 <0> d           0.135  -9.472   2.886  0.00  0.00     0.073 A 
ATOM      3  C12 <0> d           0.151 -10.845   2.422  0.00  0.00    -0.023 A 
ATOM      4  C13 <0> d           0.154 -10.977   1.076  0.00  0.00     0.018 A 
ATOM      5  S1  <0> d           0.126  -9.320   0.465  0.00  0.00    -0.074 SA
ATOM      6  C14 <0> d           0.175 -12.266   0.316  0.00  0.00     0.281 C 
ATOM      7  N2  <0> d           0.574 -13.343   1.241  0.00  0.00    -0.070 N 
ATOM      8  C15 <0> d          -0.250 -13.281   2.455  0.00  0.00     0.239 C 
ATOM      9  C16 <0> d           0.162 -12.079   3.313  0.00  0.00     0.068 C 
ATOM     10  C17 <0> d           0.384 -14.644   0.587  0.00  0.00     0.270 C 
ATOM     11  H22 <0> d           1.546 -13.230   1.488  0.00  0.00     0.279 HD
ENDROOT
BRANCH   1  12
ATOM     12  N1  <0> d           0.106  -7.104   2.108  0.00  0.00    -0.319 N 
ATOM     13  C9  <0> d           0.090  -6.277   1.043  0.00  0.00     0.246 C 
ATOM     14  O2  <0> d           0.090  -6.735  -0.080  0.00  0.00    -0.271 OA
ATOM     15  H10 <0> d           0.106  -6.738   3.006  0.00  0.00     0.169 HD
BRANCH  13  16
ATOM     16  C8  <0> d           0.072  -4.785   1.249  0.00  0.00     0.278 C 
BRANCH  16  17
ATOM     17  O1  <0> d           0.057  -4.129  -0.021  0.00  0.00    -0.342 OA
BRANCH  17  18
ATOM     18  C5  <0> d           0.039  -2.770  -0.013  0.00  0.00     0.069 A 
ATOM     19  C4  <0> d           0.024  -2.069  -1.210  0.00  0.00     0.037 A 
ATOM     20  C3  <0> d           0.006  -0.688  -1.200  0.00  0.00     0.009 A 
ATOM     21  C2  <0> d           0.002  -0.004   0.002  0.00  0.00    -0.062 A 
ATOM     22  C1  <0> d          -0.018   1.503   0.010  0.00  0.00     0.048 C 
ATOM     23  C7  <0> d           0.023  -0.701   1.196  0.00  0.00     0.009 A 
ATOM     24  C6  <0> d           0.036  -2.082   1.191  0.00  0.00     0.037 A 
ENDBRANCH  17  18
ENDBRANCH  16  17
ENDBRANCH  13  16
ENDBRANCH   1  12
BRANCH   2  25
ATOM     25  C18 <0> d           0.132  -9.147   4.316  0.00  0.00     0.252 C 
ATOM     26  O3  <0> d          -0.924  -9.025   4.910  0.00  0.00    -0.268 OA
ATOM     27  N3  <0> d           1.297  -8.984   4.973  0.00  0.00    -0.366 N 
ATOM     28  H20 <0> d           2.138  -9.081   4.499  0.00  0.00     0.159 HD
ATOM     29  H21 <0> d           1.295  -8.769   5.918  0.00  0.00     0.159 HD
ENDBRANCH   2  25
TORSDOF 5
