REMARK  8 active torsions:
REMARK  status: ('A' for Active; 'I' for Inactive)
REMARK    1  A    between atoms: C2_2  and  N1_3 
REMARK    2  A    between atoms: N1_3  and  C3_4 
REMARK    3  A    between atoms: N1_3  and  C5_6 
REMARK    4  A    between atoms: C8_9  and  C10_12 
REMARK    5  A    between atoms: C10_12  and  N3_13 
REMARK       I    between atoms: N3_13  and  C11_14 
REMARK    6  A    between atoms: C11_14  and  C12_16 
REMARK    7  A    between atoms: C15_19  and  N4_22 
REMARK    8  A    between atoms: C18_23  and  N7_29 
ROOT
ATOM      1  N4  <0> d          10.991   4.554   3.168  0.00  0.00    -0.217 N 
ATOM      2  C18 <0> d          12.133   4.607   3.902  0.00  0.00     0.145 A 
ATOM      3  C19 <0> d          12.450   5.953   4.064  0.00  0.00     0.109 A 
ATOM      4  C20 <0> d          11.450   6.698   3.396  0.00  0.00     0.166 A 
ATOM      5  N5  <0> d          10.600   5.863   2.868  0.00  0.00    -0.176 NA
ATOM      6  C21 <0> d          13.576   6.484   4.773  0.00  0.00     0.105 C 
ATOM      7  N6  <0> d          14.469   6.904   5.335  0.00  0.00    -0.191 NA
ENDROOT
BRANCH   2   8
ATOM      8  N7  <0> d          12.845   3.531   4.394  0.00  0.00    -0.383 N 
ATOM      9  H22 <0> d          12.536   2.627   4.224  0.00  0.00     0.157 HD
ATOM     10  H23 <0> d          13.653   3.679   4.910  0.00  0.00     0.157 HD
ENDBRANCH   2   8
BRANCH   1  11
ATOM     11  C15 <0> d          10.325   3.390   2.775  0.00  0.00     0.060 A 
ATOM     12  C14 <0> d           8.937   3.378   2.697  0.00  0.00     0.032 A 
ATOM     13  C13 <0> d           8.277   2.233   2.309  0.00  0.00     0.019 A 
ATOM     14  C12 <0> d           9.005   1.083   1.994  0.00  0.00     0.032 A 
ATOM     15  C17 <0> d          10.399   1.097   2.077  0.00  0.00     0.019 A 
ATOM     16  C16 <0> d          11.053   2.247   2.461  0.00  0.00     0.032 A 
BRANCH  14  17
ATOM     17  C11 <0> d           8.301  -0.147   1.578  0.00  0.00     0.251 C 
ATOM     18  N3  <0> d           6.956  -0.159   1.498  0.00  0.00    -0.353 N 
ATOM     19  H16 <0> d           6.450   0.640   1.713  0.00  0.00     0.163 HD
ATOM     20  O1  <0> d           8.935  -1.149   1.308  0.00  0.00    -0.268 OA
BRANCH  18  21
ATOM     21  C10 <0> d           6.258  -1.379   1.085  0.00  0.00     0.162 C 
BRANCH  21  22
ATOM     22  C8  <0> d           4.771  -1.129   1.077  0.00  0.00    -0.025 A 
ATOM     23  C7  <0> d           4.145  -0.663  -0.072  0.00  0.00     0.014 A 
ATOM     24  C6  <0> d           2.779  -0.447  -0.037  0.00  0.00     0.049 A 
ATOM     25  C5  <0> d           2.083  -0.702   1.140  0.00  0.00     0.102 A 
ATOM     26  N2  <0> d           2.718  -1.141   2.216  0.00  0.00    -0.352 N 
ATOM     27  C9  <0> d           4.019  -1.361   2.211  0.00  0.00     0.098 A 
ATOM     28  H24 <0> d           2.213  -1.308   3.028  0.00  0.00     0.166 HD
BRANCH  25  29
ATOM     29  N1  <0> d           0.711  -0.489   1.189  0.00  0.00    -0.368 N 
BRANCH  29  30
ATOM     30  C2  <0> d           0.002  -0.004   0.002  0.00  0.00     0.120 C 
ATOM     31  C1  <0> d          -0.019   1.526   0.010  0.00  0.00     0.026 C 
ENDBRANCH  29  30
BRANCH  29  32
ATOM     32  C3  <0> d          -0.028  -0.750   2.427  0.00  0.00     0.120 C 
ATOM     33  C4  <0> d          -0.511  -2.202   2.437  0.00  0.00     0.026 C 
ENDBRANCH  29  32
ENDBRANCH  25  29
ENDBRANCH  21  22
ENDBRANCH  18  21
ENDBRANCH  14  17
ENDBRANCH   1  11
TORSDOF 8
