REMARK  8 active torsions:
REMARK  status: ('A' for Active; 'I' for Inactive)
REMARK    1  A    between atoms: C4_6  and  C5_7 
REMARK    2  A    between atoms: C5_7  and  C6_9 
REMARK    3  A    between atoms: C9_12  and  N3_15 
REMARK       I    between atoms: N3_15  and  C12_16 
REMARK    4  A    between atoms: C12_16  and  C13_18 
REMARK       I    between atoms: C13_18  and  N4_20 
REMARK    5  A    between atoms: N4_20  and  C14_21 
REMARK    6  A    between atoms: C14_21  and  C15_22 
REMARK    7  A    between atoms: C15_22  and  C16_23 
REMARK    8  A    between atoms: C19_26  and  O4_32 
ROOT
ATOM      1  N3  <0> d           1.068  -4.770   6.119  0.00  0.00    -0.319 N 
ATOM      2  C12 <0> d           0.223  -5.030   7.136  0.00  0.00     0.313 C 
ATOM      3  O2  <0> d          -0.866  -4.497   7.171  0.00  0.00    -0.262 OA
ATOM      4  H12 <0> d           1.907  -5.253   6.048  0.00  0.00     0.169 HD
ENDROOT
BRANCH   2   5
ATOM      5  C13 <0> d           0.628  -5.975   8.219  0.00  0.00     0.309 C 
ATOM      6  O3  <0> d           1.717  -6.509   8.184  0.00  0.00    -0.262 OA
ATOM      7  N4  <0> d          -0.217  -6.236   9.236  0.00  0.00    -0.353 N 
ATOM      8  H13 <0> d          -1.088  -5.809   9.265  0.00  0.00     0.162 HD
BRANCH   7   9
ATOM      9  C14 <0> d           0.179  -7.163  10.299  0.00  0.00     0.127 C 
BRANCH   9  10
ATOM     10  C15 <0> d          -0.952  -7.280  11.322  0.00  0.00     0.056 C 
BRANCH  10  11
ATOM     11  C16 <0> d          -0.544  -8.234  12.415  0.00  0.00    -0.048 A 
ATOM     12  C23 <0> d          -0.675  -9.741  12.403  0.00  0.00     0.155 A 
ATOM     13  N5  <0> d          -0.137 -10.202  13.687  0.00  0.00    -0.385 N 
ATOM     14  C22 <0> d           0.250  -9.158  14.377  0.00  0.00     0.039 A 
ATOM     15  H26 <0> d          -0.080 -11.126  13.979  0.00  0.00     0.160 HD
ATOM     16  C17 <0> d           0.007  -7.915  13.608  0.00  0.00    -0.003 A 
ATOM     17  C21 <0> d           0.850  -9.030  15.709  0.00  0.00     0.033 A 
ATOM     18  C18 <0> d           0.380  -6.637  14.222  0.00  0.00     0.050 A 
ATOM     19  C19 <0> d           0.928  -6.626  15.461  0.00  0.00     0.069 A 
ATOM     20  C20 <0> d           1.158  -7.806  16.190  0.00  0.00     0.039 A 
BRANCH  19  21
ATOM     21  O4  <0> d           1.269  -5.434  16.018  0.00  0.00    -0.356 OA
ATOM     22  C24 <0> d           1.844  -5.470  17.325  0.00  0.00     0.210 C 
ENDBRANCH  19  21
ENDBRANCH  10  11
ENDBRANCH   9  10
ENDBRANCH   7   9
ENDBRANCH   2   5
BRANCH   1  23
ATOM     23  C9  <0> d           0.738  -3.808   5.169  0.00  0.00     0.035 A 
ATOM     24  C8  <0> d           0.009  -2.682   5.545  0.00  0.00     0.030 A 
ATOM     25  C7  <0> d          -0.317  -1.735   4.615  0.00  0.00     0.017 A 
ATOM     26  C6  <0> d           0.083  -1.898   3.283  0.00  0.00     0.014 A 
ATOM     27  C11 <0> d           0.811  -3.034   2.908  0.00  0.00     0.017 A 
ATOM     28  C10 <0> d           1.138  -3.973   3.845  0.00  0.00     0.030 A 
BRANCH  26  29
ATOM     29  C5  <0> d          -0.265  -0.883   2.281  0.00  0.00     0.214 C 
ATOM     30  O1  <0> d           0.078  -1.028   1.126  0.00  0.00    -0.288 OA
BRANCH  29  31
ATOM     31  C4  <0> d          -1.049   0.339   2.686  0.00  0.00     0.418 C 
ATOM     32  N1  <0> d          -0.779   1.454   1.747  0.00  0.00     0.121 N 
ATOM     33  C1  <0> d          -1.826   1.543   0.721  0.00  0.00     0.313 C 
ATOM     34  C2  <0> d          -0.815   2.635   2.647  0.00  0.00     0.321 C 
ATOM     35  C3  <0> d          -0.470   2.079   4.011  0.00  0.00     0.116 C 
ATOM     36  N2  <0> d          -0.606   0.810   4.004  0.00  0.00    -0.261 NA
ENDBRANCH  29  31
ENDBRANCH  26  29
ENDBRANCH   1  23
TORSDOF 8
