REMARK  6 active torsions:
REMARK  status: ('A' for Active; 'I' for Inactive)
REMARK    1  A    between atoms: C2_2  and  C3_3 
REMARK    2  A    between atoms: C3_3  and  C4_4 
REMARK    3  A    between atoms: C4_4  and  C5_5 
REMARK    4  A    between atoms: C5_5  and  C6_6 
REMARK    5  A    between atoms: C5_5  and  N1_9 
REMARK    6  A    between atoms: C12_15  and  N2_18 
ROOT
ATOM      1  N1  <0> d           2.858  -1.917   2.495  0.00  0.00    -0.049 N 
ATOM      2  C7  <0> d           2.861  -0.443   2.632  0.00  0.00     0.275 C 
ATOM      3  C8  <0> d           4.115  -0.108   3.408  0.00  0.00    -0.022 A 
ATOM      4  C9  <0> d           4.809   1.077   3.568  0.00  0.00     0.009 A 
ATOM      5  C10 <0> d           5.951   1.114   4.348  0.00  0.00     0.003 A 
ATOM      6  C11 <0> d           6.402  -0.034   4.971  0.00  0.00     0.030 A 
ATOM      7  C12 <0> d           5.707  -1.226   4.812  0.00  0.00     0.038 A 
ATOM      8  C13 <0> d           4.562  -1.261   4.029  0.00  0.00     0.002 A 
ATOM      9  C14 <0> d           3.615  -2.386   3.678  0.00  0.00     0.277 C 
ATOM     10  H27 <0> d           3.323  -2.197   1.644  0.00  0.00     0.281 HD
ENDROOT
BRANCH   1  11
ATOM     11  C5  <0> d           1.483  -2.434   2.524  0.00  0.00     0.288 C 
BRANCH  11  12
ATOM     12  C4  <0> d           0.706  -1.884   1.327  0.00  0.00     0.044 C 
BRANCH  12  13
ATOM     13  C3  <0> d          -0.760  -2.308   1.432  0.00  0.00     0.002 C 
BRANCH  13  14
ATOM     14  C2  <0> d          -1.563  -1.654   0.306  0.00  0.00    -0.004 C 
ATOM     15  C1  <0> d          -3.029  -2.079   0.411  0.00  0.00     0.005 C 
ENDBRANCH  13  14
ENDBRANCH  12  13
ENDBRANCH  11  12
BRANCH  11  16
ATOM     16  C6  <0> d           1.511  -3.940   2.456  0.00  0.00     0.205 C 
ATOM     17  O1  <0> d           2.416  -4.506   1.868  0.00  0.00    -0.646 OA
ATOM     18  O2  <0> d           0.629  -4.590   2.990  0.00  0.00    -0.646 OA
ENDBRANCH  11  16
ENDBRANCH   1  11
BRANCH   7  19
ATOM     19  N2  <0> d           6.161  -2.389   5.440  0.00  0.00    -0.377 N 
ATOM     20  C18 <0> d           5.706  -2.745   6.793  0.00  0.00     0.150 C 
ATOM     21  C17 <0> d           6.929  -3.056   7.655  0.00  0.00     0.252 C 
ATOM     22  N3  <0> d           7.743  -4.086   6.998  0.00  0.00    -0.072 N 
ATOM     23  C16 <0> d           8.273  -3.571   5.729  0.00  0.00     0.252 C 
ATOM     24  H22 <0> d           7.173  -4.899   6.817  0.00  0.00     0.277 HD
ATOM     25  H28 <0> d           8.509  -4.343   7.601  0.00  0.00     0.277 HD
ATOM     26  C15 <0> d           7.112  -3.288   4.769  0.00  0.00     0.150 C 
ENDBRANCH   7  19
TORSDOF 6
