REMARK  2 active torsions:
REMARK  status: ('A' for Active; 'I' for Inactive)
REMARK    1  A    between atoms: C2_2  and  C3_3 
REMARK    2  A    between atoms: C2_2  and  N1_6 
ROOT
ATOM      1  N1  <0> d           0.688  -0.476  -1.203  0.00  0.00    -0.253 N 
ATOM      2  C4  <0> d           1.797  -1.245  -1.192  0.00  0.00     0.259 C 
ATOM      3  O3  <0> d           2.412  -1.630  -0.221  0.00  0.00    -0.270 OA
ATOM      4  C5  <0> d           2.112  -1.526  -2.645  0.00  0.00     0.139 C 
ATOM      5  C6  <0> d           3.506  -1.012  -3.003  0.00  0.00     0.149 A 
ATOM      6  C7  <0> d           3.326   0.172  -3.942  0.00  0.00    -0.041 A 
ATOM      7  C8  <0> d           3.968   1.193  -3.379  0.00  0.00    -0.005 A 
ATOM      8  C9  <0> d           4.203   2.571  -3.837  0.00  0.00     0.014 A 
ATOM      9  C10 <0> d           4.904   3.373  -2.992  0.00  0.00     0.001 A 
ATOM     10  C11 <0> d           5.388   2.945  -1.752  0.00  0.00     0.002 A 
ATOM     11  C12 <0> d           5.222   1.694  -1.253  0.00  0.00     0.030 A 
ATOM     12  C13 <0> d           4.504   0.759  -2.053  0.00  0.00     0.039 A 
ATOM     13  N2  <0> d           4.220  -0.505  -1.829  0.00  0.00    -0.378 N 
ATOM     14  C14 <0> d           2.501   0.121  -5.204  0.00  0.00     0.057 C 
ATOM     15  C15 <0> d           1.125  -0.459  -4.819  0.00  0.00     0.133 C 
ATOM     16  N3  <0> d           1.127  -0.701  -3.373  0.00  0.00    -0.313 N 
ATOM     17  C16 <0> d           0.288  -0.204  -2.453  0.00  0.00     0.329 C 
ATOM     18  O4  <0> d          -0.718   0.424  -2.721  0.00  0.00    -0.246 OA
ATOM     19  C17 <0> d           1.949  -3.011  -2.973  0.00  0.00     0.052 C 
ATOM     20  H17 <0> d           4.437  -1.015  -1.033  0.00  0.00     0.160 HD
ENDROOT
BRANCH   1  21
ATOM     21  C2  <0> d           0.002  -0.004   0.002  0.00  0.00     0.194 C 
ATOM     22  C1  <0> d          -0.019   1.526   0.010  0.00  0.00     0.044 C 
BRANCH  21  23
ATOM     23  C3  <0> d          -1.412  -0.526   0.013  0.00  0.00     0.197 C 
ATOM     24  O1  <0> d          -1.868  -1.070  -0.978  0.00  0.00    -0.646 OA
ATOM     25  O2  <0> d          -2.099  -0.403   1.012  0.00  0.00    -0.646 OA
ENDBRANCH  21  23
ENDBRANCH   1  21
TORSDOF 2
