REMARK  8 active torsions:
REMARK  status: ('A' for Active; 'I' for Inactive)
REMARK    1  A    between atoms: N1_2  and  C3_4 
REMARK    2  A    between atoms: C3_4  and  C4_5 
REMARK    3  A    between atoms: C3_4  and  C17_22 
REMARK    4  A    between atoms: C4_5  and  N2_6 
REMARK       I    between atoms: N2_6  and  C5_7 
REMARK       I    between atoms: C5_7  and  N3_9 
REMARK    5  A    between atoms: N3_9  and  C6_10 
REMARK    6  A    between atoms: C6_10  and  C7_11 
REMARK    7  A    between atoms: C7_11  and  O2_12 
REMARK    8  A    between atoms: O2_12  and  C8_13 
ROOT
ATOM      1  N2  <0> d           0.044  -2.014   1.012  0.00  0.00    -0.341 N 
ATOM      2  C5  <0> d           0.458  -3.278   1.232  0.00  0.00     0.316 C 
ATOM      3  O1  <0> d           0.107  -4.171   0.484  0.00  0.00    -0.247 OA
ATOM      4  N3  <0> d           1.260  -3.553   2.279  0.00  0.00    -0.341 N 
ATOM      5  H10 <0> d           0.325  -1.302   1.609  0.00  0.00     0.164 HD
ATOM      6  H11 <0> d           1.540  -2.841   2.875  0.00  0.00     0.164 HD
ENDROOT
BRANCH   1   7
ATOM      7  C4  <0> d          -0.828  -1.716  -0.126  0.00  0.00     0.163 C 
BRANCH   7   8
ATOM      8  C3  <0> d          -1.251  -0.247  -0.073  0.00  0.00     0.244 C 
BRANCH   8   9
ATOM      9  N1  <0> d          -2.022   0.085  -1.279  0.00  0.00    -0.068 N 
ATOM     10  C1  <0> d          -2.489   1.475  -1.195  0.00  0.00     0.270 C 
ATOM     11  C2  <0> d          -1.170  -0.075  -2.465  0.00  0.00     0.270 C 
ATOM     12  H28 <0> d          -2.817  -0.533  -1.350  0.00  0.00     0.279 HD
ENDBRANCH   8   9
BRANCH   8  13
ATOM     13  C17 <0> d          -2.103  -0.013   1.148  0.00  0.00     0.015 A 
ATOM     14  S1  <0> d          -3.835  -0.366   1.395  0.00  0.00    -0.104 SA
ATOM     15  C20 <0> d          -3.974   0.219   3.076  0.00  0.00     0.050 A 
ATOM     16  C19 <0> d          -2.712   0.645   3.330  0.00  0.00     0.008 A 
ATOM     17  C18 <0> d          -1.753   0.526   2.342  0.00  0.00     0.017 A 
ENDBRANCH   8  13
ENDBRANCH   7   8
ENDBRANCH   1   7
BRANCH   4  18
ATOM     18  C6  <0> d           1.710  -4.927   2.518  0.00  0.00     0.151 C 
BRANCH  18  19
ATOM     19  C7  <0> d           2.602  -4.963   3.760  0.00  0.00     0.195 C 
BRANCH  19  20
ATOM     20  O2  <0> d           1.831  -4.612   4.911  0.00  0.00    -0.350 OA
BRANCH  20  21
ATOM     21  C8  <0> d           2.479  -4.597   6.105  0.00  0.00     0.069 A 
ATOM     22  C13 <0> d           1.793  -4.265   7.263  0.00  0.00     0.044 A 
ATOM     23  C12 <0> d           2.449  -4.255   8.482  0.00  0.00    -0.049 A 
ATOM     24  C11 <0> d           3.796  -4.564   8.542  0.00  0.00    -0.052 A 
ATOM     25  C14 <0> d           1.934  -3.938   9.870  0.00  0.00     0.039 C 
ATOM     26  C10 <0> d           4.483  -4.889   7.384  0.00  0.00     0.010 A 
ATOM     27  C16 <0> d           4.277  -4.476   9.975  0.00  0.00     0.039 C 
ATOM     28  C9  <0> d           3.830  -4.907   6.168  0.00  0.00     0.037 A 
ATOM     29  C15 <0> d           2.995  -4.509  10.834  0.00  0.00     0.009 C 
ENDBRANCH  20  21
ENDBRANCH  19  20
ENDBRANCH  18  19
ENDBRANCH   4  18
TORSDOF 8
