REMARK  7 active torsions:
REMARK  status: ('A' for Active; 'I' for Inactive)
REMARK    1  A    between atoms: C2_2  and  N1_3 
REMARK    2  A    between atoms: N1_3  and  C3_4 
REMARK    3  A    between atoms: N1_3  and  S1_11 
REMARK    4  A    between atoms: C3_4  and  C4_5 
REMARK    5  A    between atoms: S1_11  and  C9_14 
REMARK    6  A    between atoms: C9_14  and  C10_15 
REMARK    7  A    between atoms: C13_18  and  N3_21 
ROOT
ATOM      1  S1  <0> d          -2.092  -0.923   1.446  0.00  0.00     0.232 S 
ATOM      2  O1  <0> d          -3.070  -1.892   1.095  0.00  0.00    -0.205 OA
ATOM      3  O2  <0> d          -1.015  -1.260   2.309  0.00  0.00    -0.205 OA
ENDROOT
BRANCH   1   4
ATOM      4  N1  <0> d          -1.372  -0.511   0.012  0.00  0.00    -0.307 N 
BRANCH   4   5
ATOM      5  C2  <0> d           0.002  -0.004   0.002  0.00  0.00     0.131 C 
ATOM      6  C1  <0> d          -0.019   1.526   0.010  0.00  0.00     0.027 C 
ENDBRANCH   4   5
BRANCH   4   7
ATOM      7  C3  <0> d          -2.110  -0.654  -1.245  0.00  0.00     0.173 C 
BRANCH   7   8
ATOM      8  C4  <0> d          -1.778  -1.983  -1.874  0.00  0.00    -0.037 A 
ATOM      9  C8  <0> d          -2.526  -3.113  -1.582  0.00  0.00     0.028 A 
ATOM     10  C7  <0> d          -2.196  -4.313  -2.183  0.00  0.00     0.116 A 
ATOM     11  N2  <0> d          -1.176  -4.393  -3.015  0.00  0.00    -0.273 NA
ATOM     12  C6  <0> d          -0.439  -3.340  -3.311  0.00  0.00     0.116 A 
ATOM     13  C5  <0> d          -0.713  -2.106  -2.754  0.00  0.00     0.028 A 
ENDBRANCH   7   8
ENDBRANCH   4   7
ENDBRANCH   1   4
BRANCH   1  14
ATOM     14  C9  <0> d          -2.898   0.599   2.017  0.00  0.00     0.201 C 
BRANCH  14  15
ATOM     15  C10 <0> d          -3.592   0.338   3.329  0.00  0.00    -0.043 A 
ATOM     16  C15 <0> d          -2.913   0.526   4.518  0.00  0.00     0.010 A 
ATOM     17  C14 <0> d          -3.548   0.293   5.722  0.00  0.00     0.029 A 
ATOM     18  C13 <0> d          -4.867  -0.141   5.737  0.00  0.00     0.025 A 
ATOM     19  C12 <0> d          -5.545  -0.334   4.540  0.00  0.00     0.029 A 
ATOM     20  C11 <0> d          -4.906  -0.094   3.340  0.00  0.00     0.010 A 
BRANCH  18  21
ATOM     21  N3  <0> d          -5.511  -0.382   6.953  0.00  0.00    -0.399 N 
ATOM     22  H18 <0> d          -6.433  -0.685   6.962  0.00  0.00     0.156 HD
ATOM     23  H19 <0> d          -5.037  -0.247   7.788  0.00  0.00     0.156 HD
ENDBRANCH  18  21
ENDBRANCH  14  15
ENDBRANCH   1  14
TORSDOF 7
