REMARK  5 active torsions:
REMARK  status: ('A' for Active; 'I' for Inactive)
REMARK    1  A    between atoms: C4_4  and  S2_8 
REMARK    2  A    between atoms: S2_8  and  N1_11 
REMARK    3  A    between atoms: N1_11  and  C7_12 
REMARK    4  A    between atoms: N1_11  and  C9_16 
REMARK    5  A    between atoms: C7_12  and  C8_13 
REMARK       I    between atoms: C8_13  and  N2_15 
ROOT
ATOM      1  N1  <0> d          -2.232  -3.201  -2.052  0.00  0.00    -0.293 N 
ENDROOT
BRANCH   1   2
ATOM      2  S2  <0> d          -2.028  -2.009  -0.921  0.00  0.00     0.262 S 
ATOM      3  O1  <0> d          -1.608  -2.652   0.275  0.00  0.00    -0.200 OA
ATOM      4  O2  <0> d          -3.188  -1.191  -0.979  0.00  0.00    -0.200 OA
BRANCH   2   5
ATOM      5  C4  <0> d          -0.679  -1.009  -1.454  0.00  0.00     0.093 A 
ATOM      6  C3  <0> d          -0.884   0.308  -1.822  0.00  0.00     0.040 A 
ATOM      7  C2  <0> d           0.175   1.050  -2.227  0.00  0.00    -0.019 A 
ATOM      8  C1  <0> d           0.211   2.489  -2.674  0.00  0.00     0.056 C 
ATOM      9  S1  <0> d           1.516  -0.122  -2.103  0.00  0.00    -0.099 SA
ATOM     10  C5  <0> d           0.576  -1.519  -1.510  0.00  0.00     0.002 A 
ATOM     11  C6  <0> d           1.052  -2.907  -1.167  0.00  0.00     0.058 C 
ENDBRANCH   2   5
ENDBRANCH   1   2
BRANCH   1  12
ATOM     12  C7  <0> d          -1.652  -4.528  -1.831  0.00  0.00     0.238 C 
BRANCH  12  13
ATOM     13  C8  <0> d          -2.677  -5.421  -1.179  0.00  0.00     0.234 C 
ATOM     14  O3  <0> d          -3.736  -4.960  -0.811  0.00  0.00    -0.272 OA
ATOM     15  N2  <0> d          -2.415  -6.731  -1.004  0.00  0.00    -0.369 N 
ATOM     16  H10 <0> d          -1.567  -7.100  -1.298  0.00  0.00     0.159 HD
ATOM     17  H11 <0> d          -3.074  -7.306  -0.585  0.00  0.00     0.159 HD
ENDBRANCH  12  13
ENDBRANCH   1  12
BRANCH   1  18
ATOM     18  C9  <0> d          -2.991  -2.928  -3.275  0.00  0.00     0.096 C 
ATOM     19  C13 <0> d          -2.071  -3.037  -4.503  0.00  0.00     0.026 C 
ATOM     20  C12 <0> d          -2.649  -4.159  -5.389  0.00  0.00     0.002 C 
ATOM     21  C11 <0> d          -4.143  -4.229  -4.987  0.00  0.00     0.002 C 
ATOM     22  C10 <0> d          -4.097  -3.987  -3.458  0.00  0.00     0.026 C 
ENDBRANCH   1  18
TORSDOF 5
