REMARK  4 active torsions:
REMARK  status: ('A' for Active; 'I' for Inactive)
REMARK    1  A    between atoms: C2_2  and  C3_3 
REMARK    2  A    between atoms: C6_6  and  C14_19 
REMARK    3  A    between atoms: C7_7  and  N1_9 
REMARK    4  A    between atoms: N2_12  and  S1_15 
ROOT
ATOM      1  C3  <0> d          -1.433  -0.534   0.013  0.00  0.00    -0.013 C 
ATOM      2  C4  <0> d          -2.110  -0.145   1.329  0.00  0.00     0.005 C 
ATOM      3  C5  <0> d          -3.546  -0.675   1.340  0.00  0.00     0.018 C 
ATOM      4  C6  <0> d          -3.528  -2.199   1.206  0.00  0.00     0.117 C 
ATOM      5  C7  <0> d          -2.851  -2.587  -0.110  0.00  0.00     0.203 C 
ATOM      6  C8  <0> d          -1.416  -2.058  -0.121  0.00  0.00     0.039 C 
ENDROOT
BRANCH   5   7
ATOM      7  N1  <0> d          -2.834  -4.051  -0.239  0.00  0.00    -0.063 N 
ATOM      8  C12 <0> d          -2.184  -4.421  -1.502  0.00  0.00     0.256 C 
ATOM      9  C11 <0> d          -2.063  -5.947  -1.585  0.00  0.00     0.162 C 
ATOM     10  N2  <0> d          -3.399  -6.532  -1.395  0.00  0.00    -0.308 N 
ATOM     11  C10 <0> d          -4.191  -6.090  -0.236  0.00  0.00     0.162 C 
ATOM     12  C9  <0> d          -4.212  -4.558  -0.218  0.00  0.00     0.256 C 
ATOM     13  H26 <0> d          -2.320  -4.449   0.532  0.00  0.00     0.280 HD
BRANCH  10  14
ATOM     14  S1  <0> d          -3.995  -7.655  -2.455  0.00  0.00     0.224 S 
ATOM     15  O1  <0> d          -2.844  -8.273  -3.014  0.00  0.00    -0.206 OA
ATOM     16  O2  <0> d          -4.926  -8.413  -1.695  0.00  0.00    -0.206 OA
ATOM     17  C13 <0> d          -4.863  -6.688  -3.721  0.00  0.00     0.186 C 
ENDBRANCH  10  14
ENDBRANCH   5   7
BRANCH   4  18
ATOM     18  C14 <0> d          -2.764  -2.796   2.359  0.00  0.00     0.179 C 
ATOM     19  O3  <0> d          -3.139  -2.605   3.503  0.00  0.00    -0.648 OA
ATOM     20  O4  <0> d          -1.770  -3.469   2.148  0.00  0.00    -0.648 OA
ENDBRANCH   4  18
BRANCH   1  21
ATOM     21  C2  <0> d           0.002  -0.004   0.002  0.00  0.00     0.000 C 
ATOM     22  C1  <0> d          -0.019   1.526   0.010  0.00  0.00     0.005 C 
ENDBRANCH   1  21
TORSDOF 4
