REMARK  3 active torsions:
REMARK  status: ('A' for Active; 'I' for Inactive)
REMARK    1  A    between atoms: C3_3  and  S1_8 
REMARK    2  A    between atoms: S1_8  and  N3_11 
REMARK    3  A    between atoms: N3_11  and  C5_12 
ROOT
ATOM      1  N3  <0> d          -1.187   0.498  -3.147  0.00  0.00    -0.308 N 
ATOM      2  H8  <0> d          -1.836   0.186  -3.797  0.00  0.00     0.172 HD
ENDROOT
BRANCH   1   3
ATOM      3  S1  <0> d           0.041  -0.499  -2.659  0.00  0.00     0.262 S 
ATOM      4  O1  <0> d           1.243   0.249  -2.779  0.00  0.00    -0.200 OA
ATOM      5  O2  <0> d          -0.154  -1.739  -3.325  0.00  0.00    -0.200 OA
BRANCH   3   6
ATOM      6  C3  <0> d          -0.191  -0.808  -0.940  0.00  0.00     0.122 A 
ATOM      7  C2  <0> d          -1.236  -1.463  -0.383  0.00  0.00     0.048 A 
ATOM      8  C1  <0> d          -2.409  -2.055  -1.121  0.00  0.00     0.071 C 
ATOM      9  N2  <0> d          -1.043  -1.484   0.953  0.00  0.00    -0.281 N 
ATOM     10  N1  <0> d           0.165  -0.829   1.224  0.00  0.00    -0.185 NA
ATOM     11  H1  <0> d          -1.635  -1.884   1.608  0.00  0.00     0.189 HD
ATOM     12  C4  <0> d           0.673  -0.421   0.089  0.00  0.00     0.165 A 
ENDBRANCH   3   6
ENDBRANCH   1   3
BRANCH   1  13
ATOM     13  C5  <0> d          -1.294   1.852  -2.598  0.00  0.00     0.125 C 
ATOM     14  C8  <0> d          -2.767   2.263  -2.431  0.00  0.00     0.211 C 
ATOM     15  N4  <0> d          -2.678   3.748  -2.406  0.00  0.00    -0.065 N 
ATOM     16  C9  <0> d          -3.379   1.820  -1.109  0.00  0.00     0.035 C 
ATOM     17  C7  <0> d          -1.759   4.098  -3.490  0.00  0.00     0.237 C 
ATOM     18  C12 <0> d          -4.025   4.289  -2.513  0.00  0.00     0.235 C 
ATOM     19  H21 <0> d          -2.275   4.029  -1.525  0.00  0.00     0.280 HD
ATOM     20  C6  <0> d          -0.777   2.907  -3.615  0.00  0.00     0.055 C 
ATOM     21  C11 <0> d          -4.788   3.905  -1.234  0.00  0.00     0.028 C 
ATOM     22  C10 <0> d          -4.806   2.389  -1.048  0.00  0.00     0.004 C 
ENDBRANCH   1  13
TORSDOF 3
