REMARK  6 active torsions:
REMARK  status: ('A' for Active; 'I' for Inactive)
REMARK    1  A    between atoms: C3_3  and  C13_18 
REMARK    2  A    between atoms: C4_4  and  C7_9 
REMARK       I    between atoms: C7_9  and  N3_11 
REMARK    3  A    between atoms: C13_18  and  O3_20 
REMARK    4  A    between atoms: O3_20  and  C14_21 
REMARK    5  A    between atoms: C14_21  and  C15_22 
REMARK    6  A    between atoms: C15_22  and  O4_23 
ROOT
ATOM      1  C1  <0> d          -0.378   1.463   0.049  0.00  0.00     0.071 C 
ATOM      2  C2  <0> d          -0.093  -0.017   0.014  0.00  0.00     0.051 A 
ATOM      3  C3  <0> d          -0.176  -0.729  -1.189  0.00  0.00     0.098 A 
ATOM      4  C4  <0> d           0.102  -2.108  -1.161  0.00  0.00     0.144 A 
ATOM      5  N1  <0> d           0.429  -2.671  -0.003  0.00  0.00    -0.227 NA
ATOM      6  C5  <0> d           0.493  -1.956   1.101  0.00  0.00     0.123 A 
ATOM      7  N2  <0> d           0.245  -0.661   1.117  0.00  0.00    -0.238 NA
ATOM      8  C6  <0> d           0.869  -2.641   2.390  0.00  0.00     0.093 C 
ENDROOT
BRANCH   4   9
ATOM      9  C7  <0> d           0.031  -2.920  -2.404  0.00  0.00     0.273 C 
ATOM     10  O1  <0> d          -0.137  -2.374  -3.476  0.00  0.00    -0.266 OA
ATOM     11  N3  <0> d           0.151  -4.260  -2.340  0.00  0.00    -0.343 N 
ATOM     12  C11 <0> d           0.268  -5.068  -3.565  0.00  0.00     0.158 C 
ATOM     13  C8  <0> d           0.164  -4.959  -1.046  0.00  0.00     0.153 C 
ATOM     14  C10 <0> d          -0.750  -6.205  -3.500  0.00  0.00     0.199 C 
ATOM     15  N4  <0> d          -0.563  -6.961  -2.255  0.00  0.00    -0.068 N 
ATOM     16  C12 <0> d          -0.552  -7.138  -4.697  0.00  0.00     0.041 C 
ATOM     17  C9  <0> d          -0.855  -6.102  -1.101  0.00  0.00     0.252 C 
ATOM     18  H12 <0> d           0.391  -7.285  -2.200  0.00  0.00     0.277 HD
ATOM     19  H25 <0> d          -1.186  -7.755  -2.248  0.00  0.00     0.277 HD
ENDBRANCH   4   9
BRANCH   3  20
ATOM     20  C13 <0> d          -0.545  -0.052  -2.450  0.00  0.00     0.297 C 
ATOM     21  O2  <0> d           0.318   0.427  -3.157  0.00  0.00    -0.259 OA
BRANCH  20  22
ATOM     22  O3  <0> d          -1.839   0.034  -2.815  0.00  0.00    -0.315 OA
BRANCH  22  23
ATOM     23  C14 <0> d          -2.123   0.701  -4.046  0.00  0.00     0.205 C 
BRANCH  23  24
ATOM     24  C15 <0> d          -3.634   0.699  -4.290  0.00  0.00     0.193 C 
BRANCH  24  25
ATOM     25  O4  <0> d          -4.281   1.476  -3.281  0.00  0.00    -0.394 OA
ATOM     26  C16 <0> d          -5.702   1.538  -3.417  0.00  0.00     0.201 C 
ENDBRANCH  24  25
ENDBRANCH  23  24
ENDBRANCH  22  23
ENDBRANCH  20  22
ENDBRANCH   3  20
TORSDOF 6
