REMARK  9 active torsions:
REMARK  status: ('A' for Active; 'I' for Inactive)
REMARK    1  A    between atoms: C2_2  and  C3_3 
REMARK    2  A    between atoms: C3_3  and  N1_4 
REMARK    3  A    between atoms: N1_4  and  C4_5 
REMARK    4  A    between atoms: C5_6  and  C9_12 
REMARK       I    between atoms: C9_12  and  N3_14 
REMARK    5  A    between atoms: N3_14  and  C11_16 
REMARK    6  A    between atoms: C11_16  and  C12_17 
REMARK    7  A    between atoms: C12_17  and  C13_18 
REMARK    8  A    between atoms: C12_17  and  O3_21 
REMARK    9  A    between atoms: C13_18  and  O2_19 
ROOT
ATOM      1  C4  <0> d           0.623  -3.072  -3.032  0.00  0.00     0.139 A 
ATOM      2  C5  <0> d           1.378  -3.962  -2.249  0.00  0.00     0.079 A 
ATOM      3  C6  <0> d           2.715  -4.194  -2.594  0.00  0.00     0.041 A 
ATOM      4  C7  <0> d           3.234  -3.535  -3.694  0.00  0.00     0.029 A 
ATOM      5  C8  <0> d           2.427  -2.673  -4.416  0.00  0.00     0.138 A 
ATOM      6  N2  <0> d           1.168  -2.471  -4.078  0.00  0.00    -0.241 NA
ATOM      7 Br1  <0> d           5.034  -3.809  -4.207  0.00  0.00    -0.050 Br
ENDROOT
BRANCH   2   8
ATOM      8  C9  <0> d           0.774  -4.638  -1.087  0.00  0.00     0.257 C 
ATOM      9  O1  <0> d           0.161  -3.992  -0.259  0.00  0.00    -0.267 OA
ATOM     10  N3  <0> d           0.903  -5.972  -0.941  0.00  0.00    -0.350 N 
ATOM     11  C10 <0> d           1.727  -6.735  -1.881  0.00  0.00     0.153 C 
BRANCH  10  12
ATOM     12  C11 <0> d           0.218  -6.658   0.158  0.00  0.00     0.159 C 
BRANCH  12  13
ATOM     13  C12 <0> d          -1.172  -7.099  -0.304  0.00  0.00     0.160 C 
BRANCH  13  14
ATOM     14  C13 <0> d          -1.887  -7.816   0.843  0.00  0.00     0.200 C 
BRANCH  14  15
ATOM     15  O2  <0> d          -3.137  -8.330   0.378  0.00  0.00    -0.393 OA
ATOM     16  C14 <0> d          -3.889  -9.022   1.377  0.00  0.00     0.201 C 
ENDBRANCH  14  15
ENDBRANCH  13  14
BRANCH  13  17
ATOM     17  O3  <0> d          -1.930  -5.953  -0.697  0.00  0.00    -0.392 OA
ATOM     18  H22 <0> d          -2.057  -5.305   0.010  0.00  0.00     0.210 HD
ENDBRANCH  13  17
ENDBRANCH  12  13
ENDBRANCH  10  12
ENDBRANCH   2   8
BRANCH   1  19
ATOM     19  N1  <0> d          -0.700  -2.827  -2.710  0.00  0.00    -0.374 N 
ATOM     20  H9  <0> d          -1.125  -3.324  -1.994  0.00  0.00     0.161 HD
BRANCH  19  21
ATOM     21  C3  <0> d          -1.459  -1.817  -3.452  0.00  0.00     0.121 C 
BRANCH  21  22
ATOM     22  C2  <0> d          -2.885  -1.744  -2.902  0.00  0.00     0.015 C 
ATOM     23  C1  <0> d          -3.677  -0.689  -3.676  0.00  0.00     0.006 C 
ENDBRANCH  21  22
ENDBRANCH  19  21
ENDBRANCH   1  19
TORSDOF 9
