REMARK  6 active torsions:
REMARK  status: ('A' for Active; 'I' for Inactive)
REMARK    1  A    between atoms: C2_2  and  C3_3 
REMARK    2  A    between atoms: C2_2  and  N3_9 
REMARK    3  A    between atoms: C3_3  and  N1_4 
REMARK    4  A    between atoms: N3_9  and  S1_10 
REMARK    5  A    between atoms: S1_10  and  C7_13 
REMARK    6  A    between atoms: C9_15  and  C11_19 
ROOT
ATOM      1  S1  <0> d           2.324  -0.731  -1.179  0.00  0.00     0.261 S 
ATOM      2  O1  <0> d           2.674  -1.637  -0.143  0.00  0.00    -0.200 OA
ATOM      3  O2  <0> d           2.617  -0.986  -2.546  0.00  0.00    -0.200 OA
ENDROOT
BRANCH   1   4
ATOM      4  N3  <0> d           0.686  -0.508  -1.080  0.00  0.00    -0.309 N 
ATOM      5  H10 <0> d           0.137  -0.581  -1.876  0.00  0.00     0.172 HD
BRANCH   4   6
ATOM      6  C2  <0> d           0.066  -0.200   0.211  0.00  0.00     0.107 C 
ATOM      7  C1  <0> d          -0.111   1.314   0.344  0.00  0.00     0.034 C 
BRANCH   6   8
ATOM      8  C3  <0> d          -1.301  -0.882   0.296  0.00  0.00     0.154 C 
BRANCH   8   9
ATOM      9  N1  <0> d          -1.122  -2.336   0.290  0.00  0.00    -0.348 N 
ATOM     10  C6  <0> d          -0.957  -3.129   1.371  0.00  0.00     0.209 A 
ATOM     11  N2  <0> d          -0.832  -4.364   0.969  0.00  0.00    -0.255 NA
ATOM     12  C5  <0> d          -0.903  -4.403  -0.370  0.00  0.00     0.135 A 
ATOM     13  C4  <0> d          -1.084  -3.145  -0.814  0.00  0.00     0.111 A 
ENDBRANCH   8   9
ENDBRANCH   6   8
ENDBRANCH   4   6
ENDBRANCH   1   4
BRANCH   1  14
ATOM     14  C7  <0> d           3.084   0.808  -0.781  0.00  0.00     0.105 A 
ATOM     15  C10 <0> d           2.905   1.893  -1.580  0.00  0.00     0.075 A 
ATOM     16  S2  <0> d           3.790   3.108  -0.830  0.00  0.00    -0.074 SA
ATOM     17 Br1  <0> d           1.888   2.008  -3.170  0.00  0.00    -0.041 Br
ATOM     18  C9  <0> d           4.421   2.184   0.557  0.00  0.00     0.084 A 
ATOM     19  C8  <0> d           3.870   0.926   0.337  0.00  0.00     0.053 A 
BRANCH  18  20
ATOM     20  C11 <0> d           5.264   2.617   1.609  0.00  0.00     0.216 C 
ATOM     21  O3  <0> d           5.600   1.832   2.488  0.00  0.00    -0.644 OA
ATOM     22  O4  <0> d           5.658   3.777   1.641  0.00  0.00    -0.644 OA
ENDBRANCH  18  20
ENDBRANCH   1  14
TORSDOF 6
