REMARK  3 active torsions:
REMARK  status: ('A' for Active; 'I' for Inactive)
REMARK    1  A    between atoms: C5_5  and  N2_11 
REMARK    2  A    between atoms: C7_7  and  N1_8 
REMARK       I    between atoms: N2_11  and  C8_12 
REMARK    3  A    between atoms: C8_12  and  C9_14 
ROOT
ATOM      1  N2  <0> d          -1.499  -0.599  -2.680  0.00  0.00    -0.327 N 
ATOM      2  C8  <0> d          -0.420  -1.268  -2.226  0.00  0.00     0.227 C 
ATOM      3  O3  <0> d           0.407  -1.685  -3.008  0.00  0.00    -0.273 OA
ATOM      4  H13 <0> d          -2.199  -0.333  -2.064  0.00  0.00     0.169 HD
ENDROOT
BRANCH   2   5
ATOM      5  C9  <0> d          -0.243  -1.497  -0.748  0.00  0.00     0.097 C 
ATOM      6  C13 <0> d          -0.129  -0.270   0.031  0.00  0.00     0.105 C 
ATOM      7  C12 <0> d           0.553  -0.609   1.432  0.00  0.00     0.031 C 
ATOM      8  C14 <0> d          -0.240   1.182   0.134  0.00  0.00     0.264 C 
ATOM      9  C11 <0> d           0.929  -2.124   1.227  0.00  0.00     0.015 C 
ATOM     10  C15 <0> d           1.813   0.147   0.805  0.00  0.00     0.151 C 
ATOM     11  C10 <0> d           1.180  -2.057  -0.329  0.00  0.00     0.017 C 
ATOM     12  C16 <0> d           2.234  -0.905  -0.281  0.00  0.00     0.092 C 
ATOM     13 Br1  <0> d           2.452  -0.053  -2.032  0.00  0.00    -0.088 Br
ATOM     14  O5  <0> d           1.146   1.317   0.162  0.00  0.00    -0.314 OA
ATOM     15  O4  <0> d          -1.165   1.942   0.180  0.00  0.00    -0.265 OA
ENDBRANCH   2   5
BRANCH   1  16
ATOM     16  C5  <0> d          -1.609  -0.289  -4.040  0.00  0.00     0.037 A 
ATOM     17  C4  <0> d          -1.131  -1.175  -4.997  0.00  0.00     0.030 A 
ATOM     18  C3  <0> d          -1.241  -0.867  -6.338  0.00  0.00     0.011 A 
ATOM     19  C2  <0> d          -1.827   0.323  -6.730  0.00  0.00    -0.029 A 
ATOM     20  C1  <0> d          -1.946   0.657  -8.194  0.00  0.00     0.050 C 
ATOM     21  C7  <0> d          -2.304   1.208  -5.780  0.00  0.00     0.111 A 
ATOM     22  C6  <0> d          -2.202   0.902  -4.436  0.00  0.00     0.066 A 
BRANCH  21  23
ATOM     23  N1  <0> d          -2.930   2.480  -6.203  0.00  0.00    -0.115 N 
ATOM     24  O1  <0> d          -3.394   3.238  -5.369  0.00  0.00    -0.532 OA
ATOM     25  O2  <0> d          -2.983   2.769  -7.385  0.00  0.00    -0.532 OA
ENDBRANCH  21  23
ENDBRANCH   1  16
TORSDOF 3
