REMARK  2 active torsions:
REMARK  status: ('A' for Active; 'I' for Inactive)
REMARK    1  A    between atoms: N1_5  and  C5_7 
REMARK    2  A    between atoms: C8_11  and  C10_13 
ROOT
ATOM      1  C5  <0> d           0.162  -3.450   1.101  0.00  0.00     0.062 A 
ATOM      2  C6  <0> d          -0.446  -4.573   0.542  0.00  0.00     0.051 A 
ATOM      3  C7  <0> d          -0.347  -5.790   1.192  0.00  0.00     0.119 A 
ATOM      4  N3  <0> d           0.309  -5.901   2.327  0.00  0.00    -0.258 NA
ATOM      5  C8  <0> d           0.904  -4.858   2.896  0.00  0.00     0.096 A 
ATOM      6  C9  <0> d           0.854  -3.601   2.300  0.00  0.00     0.066 A 
ENDROOT
BRANCH   1   7
ATOM      7  N1  <0> d           0.083  -2.204   0.470  0.00  0.00    -0.237 N 
ATOM      8  C4  <0> d          -1.021  -1.672  -0.117  0.00  0.00     0.052 A 
ATOM      9  C3  <0> d          -0.679  -0.457  -0.606  0.00  0.00     0.061 A 
ATOM     10  C11 <0> d          -2.379  -2.318  -0.207  0.00  0.00     0.072 C 
ATOM     11  C2  <0> d           0.671  -0.237  -0.311  0.00  0.00     0.070 A 
ATOM     12 Br1  <0> d          -1.825   0.733  -1.526  0.00  0.00    -0.047 Br
ATOM     13  C1  <0> d           1.464   0.992  -0.673  0.00  0.00     0.074 C 
ATOM     14  N2  <0> d           1.129  -1.283   0.328  0.00  0.00    -0.171 NA
ENDBRANCH   1   7
BRANCH   5  15
ATOM     15  C10 <0> d           1.630  -5.035   4.173  0.00  0.00     0.123 C 
ATOM     16  S1  <0> d           2.399  -3.697   4.913  0.00  0.00    -0.058 SA
ATOM     17  N4  <0> d           1.686  -6.250   4.753  0.00  0.00    -0.388 N 
ATOM     18  H7  <0> d           1.250  -7.009   4.333  0.00  0.00     0.157 HD
ATOM     19  H8  <0> d           2.162  -6.367   5.590  0.00  0.00     0.157 HD
ENDBRANCH   5  15
TORSDOF 2
