REMARK  3 active torsions:
REMARK  status: ('A' for Active; 'I' for Inactive)
REMARK    1  A    between atoms: N1_4  and  C8_10 
REMARK    2  A    between atoms: C9_11  and  C13_17 
REMARK    3  A    between atoms: C13_17  and  N3_18 
ROOT
ATOM      1  C8  <0> d          -2.134  -2.764  -0.698  0.00  0.00     0.133 A 
ATOM      2  C9  <0> d          -3.356  -3.288  -0.289  0.00  0.00     0.014 A 
ATOM      3  C10 <0> d          -3.997  -4.210  -1.097  0.00  0.00     0.033 A 
ATOM      4  C11 <0> d          -3.391  -4.579  -2.291  0.00  0.00     0.029 A 
ATOM      5  C12 <0> d          -2.176  -4.019  -2.634  0.00  0.00     0.138 A 
ATOM      6  N2  <0> d          -1.591  -3.137  -1.846  0.00  0.00    -0.242 NA
ATOM      7 Br1  <0> d          -4.221  -5.836  -3.435  0.00  0.00    -0.050 Br
ENDROOT
BRANCH   1   8
ATOM      8  N1  <0> d          -1.479  -1.836   0.105  0.00  0.00    -0.360 N 
ATOM      9  C3  <0> d          -1.628  -0.392  -0.131  0.00  0.00     0.156 C 
ATOM     10  C2  <0> d          -0.231   0.235  -0.191  0.00  0.00     0.136 C 
ATOM     11  C1  <0> d          -0.356   1.759  -0.241  0.00  0.00     0.041 C 
ATOM     12  O1  <0> d           0.507  -0.145   0.973  0.00  0.00    -0.373 OA
ATOM     13  C5  <0> d           0.732  -1.552   1.090  0.00  0.00     0.070 C 
ATOM     14  C4  <0> d          -0.617  -2.271   1.215  0.00  0.00     0.161 C 
ATOM     15  C6  <0> d           1.578  -1.833   2.333  0.00  0.00     0.047 C 
ATOM     16  C7  <0> d           1.466  -2.056  -0.154  0.00  0.00     0.047 C 
ENDBRANCH   1   8
BRANCH   2  17
ATOM     17  C13 <0> d          -3.974  -2.856   1.016  0.00  0.00     0.272 C 
BRANCH  17  18
ATOM     18  N3  <0> d          -4.638  -1.558   0.838  0.00  0.00    -0.075 N 
ATOM     19  H19 <0> d          -3.979  -0.892   0.464  0.00  0.00     0.274 HD
ATOM     20  H20 <0> d          -5.412  -1.661   0.199  0.00  0.00     0.274 HD
ATOM     21  H21 <0> d          -4.979  -1.230   1.730  0.00  0.00     0.274 HD
ENDBRANCH  17  18
ENDBRANCH   2  17
TORSDOF 3
