REMARK  4 active torsions:
REMARK  status: ('A' for Active; 'I' for Inactive)
REMARK    1  A    between atoms: C2_2  and  C5_5 
REMARK    2  A    between atoms: C5_5  and  C6_6 
REMARK    3  A    between atoms: C6_6  and  C7_7 
REMARK    4  A    between atoms: C6_6  and  N3_20 
ROOT
ATOM      1  C7  <0> d           3.280  -0.622  -2.111  0.00  0.00    -0.008 A 
ATOM      2  C8  <0> d           4.024   0.203  -2.933  0.00  0.00     0.042 A 
ATOM      3  C9  <0> d           5.134  -0.301  -3.594  0.00  0.00     0.066 A 
ATOM      4  C10 <0> d           5.494  -1.640  -3.427  0.00  0.00     0.066 A 
ATOM      5  C11 <0> d           4.742  -2.460  -2.601  0.00  0.00     0.052 A 
ATOM      6  C12 <0> d           3.640  -1.948  -1.941  0.00  0.00     0.021 A 
ATOM      7 Br1  <0> d           2.618  -3.063  -0.808  0.00  0.00    -0.050 Br
ATOM      8  N1  <0> d           6.631  -1.851  -4.203  0.00  0.00    -0.302 N 
ATOM      9  C13 <0> d           6.948  -0.694  -4.815  0.00  0.00     0.329 A 
ATOM     10  O1  <0> d           7.890  -0.534  -5.568  0.00  0.00    -0.246 OA
ATOM     11  N2  <0> d           6.063   0.260  -4.467  0.00  0.00    -0.302 N 
ATOM     12  C14 <0> d           6.075   1.650  -4.928  0.00  0.00     0.161 C 
ATOM     13  C15 <0> d           7.359  -3.116  -4.333  0.00  0.00     0.161 C 
ENDROOT
BRANCH   1  14
ATOM     14  C6  <0> d           2.074  -0.074  -1.393  0.00  0.00     0.218 C 
BRANCH  14  15
ATOM     15  C5  <0> d           0.804  -0.477  -2.146  0.00  0.00     0.046 C 
BRANCH  15  16
ATOM     16  C2  <0> d          -0.424  -0.039  -1.347  0.00  0.00    -0.049 C 
ATOM     17  C1  <0> d          -0.491   1.490  -1.312  0.00  0.00     0.014 C 
ATOM     18  C3  <0> d          -0.322  -0.577   0.082  0.00  0.00     0.014 C 
ATOM     19  C4  <0> d          -1.688  -0.590  -2.010  0.00  0.00     0.014 C 
ENDBRANCH  15  16
ENDBRANCH  14  15
BRANCH  14  20
ATOM     20  N3  <0> d           2.163   1.391  -1.333  0.00  0.00    -0.071 N 
ATOM     21  H21 <0> d           3.133   1.668  -1.303  0.00  0.00     0.275 HD
ATOM     22  H22 <0> d           1.726   1.789  -2.151  0.00  0.00     0.275 HD
ATOM     23  H23 <0> d           1.692   1.724  -0.505  0.00  0.00     0.275 HD
ENDBRANCH  14  20
ENDBRANCH   1  14
TORSDOF 4
