REMARK  6 active torsions:
REMARK  status: ('A' for Active; 'I' for Inactive)
REMARK    1  A    between atoms: C2_2  and  N1_4 
REMARK       I    between atoms: N1_4  and  C4_5 
REMARK    2  A    between atoms: C4_5  and  C5_7 
REMARK    3  A    between atoms: C5_7  and  N2_8 
REMARK    4  A    between atoms: N3_11  and  C10_14 
REMARK    5  A    between atoms: C10_14  and  N4_15 
REMARK    6  A    between atoms: C15_21  and  C18_24 
ROOT
ATOM      1  N4  <0> d           1.264   5.969  -2.344  0.00  0.00    -0.240 N 
ATOM      2  C11 <0> d           0.627   5.614  -1.209  0.00  0.00     0.258 A 
ATOM      3  O2  <0> d           0.148   6.352  -0.374  0.00  0.00    -0.270 OA
ATOM      4  C12 <0> d           0.636   4.103  -1.197  0.00  0.00     0.116 A 
ATOM      5  C13 <0> d           1.395   3.586   0.020  0.00  0.00     0.041 C 
ATOM      6  C14 <0> d           1.417   2.055  -0.000  0.00  0.00     0.008 C 
ATOM      7  C15 <0> d          -0.019   1.526   0.010  0.00  0.00    -0.007 C 
ATOM      8  C16 <0> d          -0.759   2.033  -1.229  0.00  0.00     0.008 C 
ATOM      9  C17 <0> d          -0.790   3.563  -1.213  0.00  0.00     0.041 C 
ATOM     10  N5  <0> d           1.338   3.740  -2.434  0.00  0.00    -0.324 N 
ATOM     11  C22 <0> d           1.667   4.899  -3.038  0.00  0.00     0.327 A 
ATOM     12  O3  <0> d           2.264   4.964  -4.095  0.00  0.00    -0.247 OA
ATOM     13  H39 <0> d           1.493   2.682  -2.689  0.00  0.00     0.165 HD
ENDROOT
BRANCH   1  14
ATOM     14  C10 <0> d           1.487   7.355  -2.764  0.00  0.00     0.409 C 
BRANCH  14  15
ATOM     15  N3  <0> d           2.767   7.831  -2.223  0.00  0.00     0.109 N 
ATOM     16  C7  <0> d           3.315   8.918  -3.046  0.00  0.00     0.302 C 
ATOM     17  C6  <0> d           4.683   9.331  -2.497  0.00  0.00     0.265 C 
ATOM     18  N2  <0> d           4.538   9.754  -1.098  0.00  0.00    -0.059 N 
ATOM     19  C9  <0> d           3.991   8.667  -0.275  0.00  0.00     0.265 C 
ATOM     20  H40 <0> d           3.828  10.594  -1.068  0.00  0.00     0.280 HD
ATOM     21  C8  <0> d           2.623   8.255  -0.824  0.00  0.00     0.302 C 
BRANCH  18  22
ATOM     22  C5  <0> d           5.819  10.230  -0.557  0.00  0.00     0.337 C 
BRANCH  22  23
ATOM     23  C4  <0> d           5.588  10.880   0.783  0.00  0.00     0.243 C 
ATOM     24  N1  <0> d           6.627  11.394   1.470  0.00  0.00    -0.356 N 
ATOM     25  H8  <0> d           7.644  11.338   1.054  0.00  0.00     0.162 HD
ATOM     26  O1  <0> d           4.467  10.941   1.242  0.00  0.00    -0.272 OA
BRANCH  24  27
ATOM     27  C2  <0> d           6.403  12.026   2.773  0.00  0.00     0.076 C 
ATOM     28  C1  <0> d           6.399  10.954   3.866  0.00  0.00     0.032 C 
ATOM     29  C3  <0> d           7.521  13.033   3.050  0.00  0.00     0.032 C 
ENDBRANCH  24  27
ENDBRANCH  22  23
ENDBRANCH  18  22
ENDBRANCH  14  15
ENDBRANCH   1  14
BRANCH   7  30
ATOM     30  C18 <0> d           0.002  -0.004   0.002  0.00  0.00    -0.048 C 
ATOM     31  C19 <0> d           0.742  -0.511   1.242  0.00  0.00     0.015 C 
ATOM     32  C20 <0> d          -1.433  -0.534   0.013  0.00  0.00     0.015 C 
ATOM     33  C21 <0> d           0.718  -0.497  -1.257  0.00  0.00     0.015 C 
ENDBRANCH   7  30
TORSDOF 6
