REMARK  3 active torsions:
REMARK  status: ('A' for Active; 'I' for Inactive)
REMARK    1  A    between atoms: C8_8  and  N2_12 
REMARK    2  A    between atoms: C12_15  and  C15_18 
REMARK    3  A    between atoms: C15_18  and  N3_19 
ROOT
ATOM      1  C1  <0> d          -1.652  -6.422  -1.279  0.00  0.00     0.048 C 
ATOM      2  C2  <0> d          -0.697  -5.973  -0.203  0.00  0.00    -0.061 A 
ATOM      3  C3  <0> d           0.374  -6.774   0.150  0.00  0.00     0.015 A 
ATOM      4  C4  <0> d           1.252  -6.369   1.134  0.00  0.00    -0.034 A 
ATOM      5  C5  <0> d           1.065  -5.149   1.780  0.00  0.00     0.049 A 
ATOM      6  C6  <0> d          -0.014  -4.354   1.416  0.00  0.00     0.012 A 
ATOM      7  C7  <0> d          -0.886  -4.758   0.430  0.00  0.00     0.019 A 
ATOM      8  C8  <0> d           0.056  -3.118   2.283  0.00  0.00     0.349 A 
ATOM      9  C9  <0> d           1.283  -3.341   3.142  0.00  0.00     0.260 A 
ATOM     10  O1  <0> d           1.715  -2.588   3.990  0.00  0.00    -0.270 OA
ATOM     11  N1  <0> d           1.802  -4.529   2.790  0.00  0.00    -0.324 N 
ATOM     12  C17 <0> d           2.416  -7.250   1.512  0.00  0.00     0.050 C 
ATOM     13  H7  <0> d           2.598  -4.911   3.191  0.00  0.00     0.169 HD
ENDROOT
BRANCH   8  14
ATOM     14  N2  <0> d          -1.147  -3.006   3.118  0.00  0.00     0.106 N 
ATOM     15  C14 <0> d          -1.197  -4.082   4.116  0.00  0.00     0.274 C 
ATOM     16  C13 <0> d          -2.529  -4.020   4.868  0.00  0.00     0.036 C 
ATOM     17  C12 <0> d          -2.659  -2.657   5.553  0.00  0.00     0.014 C 
ATOM     18  C11 <0> d          -2.555  -1.552   4.498  0.00  0.00     0.036 C 
ATOM     19  C10 <0> d          -1.223  -1.686   3.757  0.00  0.00     0.274 C 
BRANCH  17  20
ATOM     20  C15 <0> d          -4.015  -2.566   6.257  0.00  0.00     0.236 C 
BRANCH  20  21
ATOM     21  N3  <0> d          -4.067  -3.548   7.348  0.00  0.00    -0.079 N 
ATOM     22  C16 <0> d          -5.369  -3.461   8.023  0.00  0.00     0.267 C 
ATOM     23  H19 <0> d          -3.946  -4.476   6.971  0.00  0.00     0.276 HD
ATOM     24  H26 <0> d          -3.331  -3.355   8.010  0.00  0.00     0.276 HD
ENDBRANCH  20  21
ENDBRANCH  17  20
ENDBRANCH   8  14
TORSDOF 3
