REMARK  5 active torsions:
REMARK  status: ('A' for Active; 'I' for Inactive)
REMARK    1  A    between atoms: C6_9  and  S1_11 
REMARK    2  A    between atoms: S1_11  and  C7_12 
REMARK    3  A    between atoms: C7_12  and  C8_13 
REMARK       I    between atoms: C8_13  and  N5_15 
REMARK    4  A    between atoms: N5_15  and  C9_16 
REMARK    5  A    between atoms: C9_16  and  C10_17 
ROOT
ATOM      1  C10 <0> d          -0.250  12.858   0.072  0.00  0.00     0.143 C 
ATOM      2  C11 <0> d          -0.812  14.218   0.085  0.00  0.00     0.060 C 
ATOM      3  N6  <0> d          -1.246  15.268   0.094  0.00  0.00    -0.197 NA
ENDROOT
BRANCH   1   4
ATOM      4  C9  <0> d          -1.388  11.835   0.078  0.00  0.00     0.136 C 
BRANCH   4   5
ATOM      5  N5  <0> d          -0.829  10.482   0.065  0.00  0.00    -0.360 N 
ATOM      6  C8  <0> d          -1.650   9.413   0.067  0.00  0.00     0.227 C 
ATOM      7  O1  <0> d          -2.852   9.572   0.080  0.00  0.00    -0.273 OA
ATOM      8  H7  <0> d           0.133  10.354   0.055  0.00  0.00     0.162 HD
BRANCH   6   9
ATOM      9  C7  <0> d          -1.074   8.020   0.054  0.00  0.00     0.185 C 
BRANCH   9  10
ATOM     10  S1  <0> d          -2.424   6.808   0.061  0.00  0.00    -0.079 SA
BRANCH  10  11
ATOM     11  C6  <0> d          -1.598   5.251   0.045  0.00  0.00     0.227 A 
ATOM     12  N3  <0> d          -0.278   5.081   0.032  0.00  0.00    -0.033 NA
ATOM     13  C5  <0> d           0.006   3.783   0.022  0.00  0.00     0.752 A 
ATOM     14  N1  <0> d          -1.181   3.105   0.030  0.00  0.00    -0.062 N 
ATOM     15  N2  <0> d           1.165   3.114   0.008  0.00  0.00    -0.066 NA
ATOM     16  C4  <0> d          -1.194   1.747   0.017  0.00  0.00     0.052 A 
ATOM     17  N4  <0> d          -2.192   4.075   0.045  0.00  0.00    -0.124 NA
ATOM     18  C3  <0> d          -0.013   1.076   0.008  0.00  0.00     0.055 A 
ATOM     19  C12 <0> d          -2.500   0.996   0.019  0.00  0.00     0.071 C 
ATOM     20  C2  <0> d           1.185   1.800   0.000  0.00  0.00     0.051 A 
ATOM     21  C1  <0> d           2.503   1.070  -0.017  0.00  0.00     0.071 C 
ENDBRANCH  10  11
ENDBRANCH   9  10
ENDBRANCH   6   9
ENDBRANCH   4   5
ENDBRANCH   1   4
TORSDOF 5
