REMARK  3 active torsions:
REMARK  status: ('A' for Active; 'I' for Inactive)
REMARK    1  A    between atoms: C5_5  and  N1_7 
REMARK    2  A    between atoms: N1_7  and  C7_8 
REMARK    3  A    between atoms: N3_15  and  C12_18 
ROOT
ATOM      1  C7  <0> d           0.081  -2.768  -0.068  0.00  0.00     0.111 C 
ATOM      2  C8  <0> d           0.099  -4.149  -0.153  0.00  0.00     0.116 A 
ATOM      3  C9  <0> d          -1.148  -4.930  -0.233  0.00  0.00     0.266 A 
ATOM      4  O1  <0> d          -2.232  -4.379  -0.226  0.00  0.00    -0.267 OA
ATOM      5  N2  <0> d          -1.054  -6.274  -0.314  0.00  0.00    -0.274 N 
ATOM      6  C10 <0> d           0.134  -6.894  -0.323  0.00  0.00     0.337 A 
ATOM      7  O2  <0> d           0.150  -8.107  -0.399  0.00  0.00    -0.246 OA
ATOM      8  N3  <0> d           1.306  -6.247  -0.254  0.00  0.00    -0.229 N 
ATOM      9  C11 <0> d           1.365  -4.902  -0.174  0.00  0.00     0.273 A 
ATOM     10  O3  <0> d           2.436  -4.326  -0.117  0.00  0.00    -0.266 OA
ATOM     11  H7  <0> d          -1.865  -6.803  -0.367  0.00  0.00     0.173 HD
ENDROOT
BRANCH   1  12
ATOM     12  N1  <0> d           1.235  -2.074  -0.135  0.00  0.00    -0.362 N 
ATOM     13  H5  <0> d           2.083  -2.544  -0.164  0.00  0.00     0.165 HD
BRANCH  12  14
ATOM     14  C5  <0> d           1.210  -0.675  -0.162  0.00  0.00     0.071 A 
ATOM     15  C4  <0> d           2.399   0.043  -0.230  0.00  0.00     0.142 A 
ATOM     16  C3  <0> d           2.369   1.425  -0.257  0.00  0.00     0.044 A 
ATOM     17  F1  <0> d           3.582  -0.609  -0.271  0.00  0.00    -0.204 F 
ATOM     18  C2  <0> d           1.158   2.092  -0.216  0.00  0.00     0.003 A 
ATOM     19  C1  <0> d          -0.026   1.380  -0.148  0.00  0.00     0.002 A 
ATOM     20  C6  <0> d          -0.003  -0.001  -0.121  0.00  0.00     0.033 A 
ENDBRANCH  12  14
ENDBRANCH   1  12
BRANCH   8  21
ATOM     21  C12 <0> d           2.498  -6.985  -0.271  0.00  0.00     0.047 A 
ATOM     22  C17 <0> d           2.862  -7.692  -1.409  0.00  0.00     0.032 A 
ATOM     23  C16 <0> d           4.040  -8.414  -1.424  0.00  0.00     0.026 A 
ATOM     24  C15 <0> d           4.850  -8.442  -0.303  0.00  0.00     0.034 A 
ATOM     25  C14 <0> d           4.486  -7.743   0.834  0.00  0.00     0.026 A 
ATOM     26 Cl1  <0> d           6.326  -9.356  -0.324  0.00  0.00    -0.084 Cl
ATOM     27  C13 <0> d           3.313  -7.015   0.853  0.00  0.00     0.032 A 
ENDBRANCH   8  21
TORSDOF 3
