REMARK  3 active torsions:
REMARK  status: ('A' for Active; 'I' for Inactive)
REMARK    1  A    between atoms: C9_10  and  C10_11 
REMARK       I    between atoms: C10_11  and  N1_13 
REMARK    2  A    between atoms: N1_13  and  C11_14 
REMARK    3  A    between atoms: C12_15  and  C19_23 
REMARK       I    between atoms: C19_23  and  N2_25 
ROOT
ATOM      1  C10 <0> d           0.032  -0.383   2.483  0.00  0.00     0.280 C 
ATOM      2  O2  <0> d           0.019   0.805   2.745  0.00  0.00    -0.265 OA
ATOM      3  N1  <0> d           0.054  -1.292   3.478  0.00  0.00    -0.315 N 
ATOM      4  H7  <0> d           0.065  -2.239   3.270  0.00  0.00     0.170 HD
ENDROOT
BRANCH   3   5
ATOM      5  C11 <0> d           0.062  -0.873   4.798  0.00  0.00     0.093 A 
ATOM      6  S1  <0> d           0.047   0.702   5.382  0.00  0.00    -0.075 SA
ATOM      7  C14 <0> d           0.066   0.379   7.121  0.00  0.00    -0.008 A 
ATOM      8  C13 <0> d           0.092  -0.968   7.220  0.00  0.00    -0.026 A 
ATOM      9  C15 <0> d           0.060   1.363   8.250  0.00  0.00     0.047 C 
ATOM     10  C12 <0> d           0.089  -1.657   5.941  0.00  0.00     0.073 A 
ATOM     11  C18 <0> d           0.122  -1.661   8.574  0.00  0.00     0.041 C 
ATOM     12  C17 <0> d           0.568  -0.651   9.633  0.00  0.00     0.005 C 
ATOM     13  C16 <0> d          -0.292   0.613   9.543  0.00  0.00     0.005 C 
BRANCH  10  14
ATOM     14  C19 <0> d           0.114  -3.121   5.863  0.00  0.00     0.252 C 
ATOM     15  O3  <0> d           1.179  -3.710   5.818  0.00  0.00    -0.268 OA
ATOM     16  N2  <0> d          -1.041  -3.814   5.840  0.00  0.00    -0.366 N 
ATOM     17  H16 <0> d          -1.889  -3.345   5.876  0.00  0.00     0.159 HD
ATOM     18  H17 <0> d          -1.024  -4.783   5.788  0.00  0.00     0.159 HD
ENDBRANCH  10  14
ENDBRANCH   3   5
BRANCH   1  19
ATOM     19  C9  <0> d           0.024  -0.827   1.083  0.00  0.00     0.150 A 
ATOM     20  C2  <0> d           0.002  -0.004   0.002  0.00  0.00    -0.009 A 
ATOM     21  C1  <0> d          -0.018   1.503   0.010  0.00  0.00     0.052 C 
ATOM     22  C3  <0> d           0.009  -0.877  -1.171  0.00  0.00     0.007 A 
ATOM     23  C8  <0> d           0.029  -2.191  -0.669  0.00  0.00     0.088 A 
ATOM     24  C4  <0> d          -0.001  -0.654  -2.550  0.00  0.00     0.016 A 
ATOM     25  C7  <0> d           0.039  -3.257  -1.560  0.00  0.00     0.057 A 
ATOM     26  O1  <0> d           0.035  -2.114   0.676  0.00  0.00    -0.304 OA
ATOM     27  C6  <0> d           0.030  -3.017  -2.918  0.00  0.00     0.013 A 
ATOM     28  C5  <0> d           0.009  -1.717  -3.408  0.00  0.00     0.020 A 
ATOM     29 Br1  <0> d           0.044  -4.471  -4.126  0.00  0.00    -0.051 Br
ENDBRANCH   1  19
TORSDOF 3
