REMARK  4 active torsions:
REMARK  status: ('A' for Active; 'I' for Inactive)
REMARK    1  A    between atoms: N2_14  and  C12_17 
REMARK    2  A    between atoms: C12_17  and  C13_18 
REMARK       I    between atoms: C13_18  and  N3_20 
REMARK    3  A    between atoms: N3_20  and  C14_21 
REMARK    4  A    between atoms: C14_21  and  C15_22 
ROOT
ATOM      1  C1  <0> d          -3.721   6.076   8.351  0.00  0.00     0.164 C 
ATOM      2  N1  <0> d          -4.396   4.939   7.720  0.00  0.00    -0.269 N 
ATOM      3  C2  <0> d          -5.718   4.741   7.923  0.00  0.00     0.270 A 
ATOM      4  O1  <0> d          -6.356   5.500   8.629  0.00  0.00    -0.266 OA
ATOM      5  C3  <0> d          -6.341   3.648   7.310  0.00  0.00     0.101 A 
ATOM      6  C4  <0> d          -5.632   2.764   6.497  0.00  0.00     0.069 A 
ATOM      7  C5  <0> d          -6.377   1.710   5.943  0.00  0.00    -0.016 A 
ATOM      8  C6  <0> d          -7.702   1.650   6.245  0.00  0.00    -0.008 A 
ATOM      9  S1  <0> d          -7.990   2.999   7.278  0.00  0.00    -0.086 SA
ATOM     10  C7  <0> d          -8.692   0.627   5.775  0.00  0.00     0.047 C 
ATOM     11  C8  <0> d          -8.073  -0.139   4.597  0.00  0.00     0.005 C 
ATOM     12  C9  <0> d          -6.652  -0.564   4.979  0.00  0.00     0.005 C 
ATOM     13  C10 <0> d          -5.739   0.662   5.034  0.00  0.00     0.042 C 
ATOM     14  N2  <0> d          -4.263   3.038   6.336  0.00  0.00    -0.289 N 
ATOM     15  C11 <0> d          -3.699   4.091   6.944  0.00  0.00     0.332 A 
ATOM     16  O2  <0> d          -2.510   4.291   6.783  0.00  0.00    -0.246 OA
ENDROOT
BRANCH  14  17
ATOM     17  C12 <0> d          -3.442   2.159   5.498  0.00  0.00     0.236 C 
BRANCH  17  18
ATOM     18  C13 <0> d          -2.930   1.010   6.328  0.00  0.00     0.236 C 
ATOM     19  O3  <0> d          -3.221   0.932   7.502  0.00  0.00    -0.272 OA
ATOM     20  N3  <0> d          -2.147   0.069   5.764  0.00  0.00    -0.357 N 
ATOM     21  H15 <0> d          -1.914   0.131   4.824  0.00  0.00     0.162 HD
BRANCH  20  22
ATOM     22  C14 <0> d          -1.649  -1.049   6.570  0.00  0.00     0.154 C 
BRANCH  22  23
ATOM     23  C15 <0> d          -0.792  -1.966   5.696  0.00  0.00     0.139 C 
ATOM     24  O4  <0> d          -1.600  -2.573   4.660  0.00  0.00    -0.384 OA
ATOM     25  C18 <0> d          -0.860  -3.741   4.241  0.00  0.00     0.168 C 
ATOM     26  C17 <0> d          -0.301  -4.347   5.547  0.00  0.00     0.029 C 
ATOM     27  C16 <0> d          -0.255  -3.153   6.526  0.00  0.00     0.035 C 
ENDBRANCH  22  23
ENDBRANCH  20  22
ENDBRANCH  17  18
ENDBRANCH  14  17
TORSDOF 4
