REMARK  7 active torsions:
REMARK  status: ('A' for Active; 'I' for Inactive)
REMARK    1  A    between atoms: C2_2  and  C3_3 
REMARK    2  A    between atoms: C2_2  and  N3_13 
REMARK       I    between atoms: N3_13  and  C10_14 
REMARK    3  A    between atoms: C10_14  and  C11_16 
REMARK    4  A    between atoms: C11_16  and  C12_17 
REMARK    5  A    between atoms: C12_17  and  S1_18 
REMARK    6  A    between atoms: S1_18  and  C13_19 
REMARK    7  A    between atoms: C13_19  and  C14_20 
ROOT
ATOM      1  C12 <0> d          -0.191  -1.204   4.756  0.00  0.00     0.083 C 
ENDROOT
BRANCH   1   2
ATOM      2  C11 <0> d           0.780  -1.133   3.576  0.00  0.00     0.113 C 
BRANCH   2   3
ATOM      3  C10 <0> d           0.051  -0.633   2.355  0.00  0.00     0.218 C 
ATOM      4  N3  <0> d           0.711  -0.489   1.189  0.00  0.00    -0.350 N 
ATOM      5  H11 <0> d           1.654  -0.707   1.135  0.00  0.00     0.163 HD
ATOM      6  O1  <0> d          -1.129  -0.361   2.423  0.00  0.00    -0.274 OA
BRANCH   4   7
ATOM      7  C2  <0> d           0.002  -0.004   0.002  0.00  0.00     0.150 C 
ATOM      8  C1  <0> d          -0.019   1.526   0.010  0.00  0.00     0.040 C 
BRANCH   7   9
ATOM      9  C3  <0> d           0.707  -0.490  -1.238  0.00  0.00     0.127 A 
ATOM     10  N2  <0> d           1.967  -0.808  -1.302  0.00  0.00    -0.231 NA
ATOM     11  C9  <0> d           2.273  -1.208  -2.563  0.00  0.00     0.085 A 
ATOM     12  C4  <0> d           1.094  -1.111  -3.321  0.00  0.00     0.062 A 
ATOM     13  C8  <0> d           3.449  -1.651  -3.175  0.00  0.00     0.034 A 
ATOM     14  N1  <0> d           0.121  -0.654  -2.454  0.00  0.00    -0.341 N 
ATOM     15  C5  <0> d           1.107  -1.455  -4.666  0.00  0.00     0.032 A 
ATOM     16  H2  <0> d          -0.808  -0.482  -2.672  0.00  0.00     0.167 HD
ATOM     17  C6  <0> d           2.278  -1.889  -5.249  0.00  0.00     0.002 A 
ATOM     18  C7  <0> d           3.443  -1.984  -4.500  0.00  0.00     0.002 A 
ENDBRANCH   7   9
ENDBRANCH   4   7
ENDBRANCH   2   3
ENDBRANCH   1   2
BRANCH   1  19
ATOM     19  S1  <0> d           0.686  -1.805   6.226  0.00  0.00    -0.161 SA
BRANCH  19  20
ATOM     20  C13 <0> d          -0.587  -1.831   7.518  0.00  0.00     0.152 C 
BRANCH  20  21
ATOM     21  C14 <0> d           0.017  -2.318   8.809  0.00  0.00     0.117 A 
ATOM     22  N5  <0> d           1.283  -2.638   8.845  0.00  0.00    -0.226 NA
ATOM     23  C19 <0> d           1.848  -3.067   9.970  0.00  0.00     0.116 A 
ATOM     24  C16 <0> d           1.121  -3.207  11.162  0.00  0.00     0.075 A 
ATOM     25  S2  <0> d           3.485  -3.582  10.423  0.00  0.00    -0.073 SA
ATOM     26  C15 <0> d          -0.267  -2.853  11.088  0.00  0.00     0.260 A 
ATOM     27  C17 <0> d           1.873  -3.693  12.318  0.00  0.00    -0.026 A 
ATOM     28  N4  <0> d          -0.765  -2.422   9.914  0.00  0.00    -0.310 N 
ATOM     29  O2  <0> d          -0.982  -2.941  12.070  0.00  0.00    -0.267 OA
ATOM     30  H3  <0> d          -1.703  -2.181   9.857  0.00  0.00     0.170 HD
ATOM     31  C23 <0> d           1.227  -3.897  13.686  0.00  0.00     0.041 C 
ATOM     32  C18 <0> d           3.183  -3.958  12.128  0.00  0.00    -0.008 A 
ATOM     33  C22 <0> d           2.117  -4.819  14.519  0.00  0.00     0.005 C 
ATOM     34  C21 <0> d           3.550  -4.281  14.540  0.00  0.00     0.005 C 
ATOM     35  C20 <0> d           4.163  -4.461  13.143  0.00  0.00     0.047 C 
ENDBRANCH  20  21
ENDBRANCH  19  20
ENDBRANCH   1  19
TORSDOF 7
