REMARK  3 active torsions:
REMARK  status: ('A' for Active; 'I' for Inactive)
REMARK    1  A    between atoms: N1_2  and  C3_4 
REMARK    2  A    between atoms: C3_4  and  C4_5 
REMARK    3  A    between atoms: C5_7  and  N4_19 
ROOT
ATOM      1  C4  <0> d          -1.581  -2.037  -0.104  0.00  0.00     0.155 A 
ATOM      2  N2  <0> d          -1.606  -2.579  -1.308  0.00  0.00    -0.213 NA
ATOM      3  C5  <0> d          -1.379  -3.867  -1.507  0.00  0.00     0.141 A 
ATOM      4  C6  <0> d          -1.097  -4.699  -0.388  0.00  0.00     0.053 A 
ATOM      5  C7  <0> d          -0.816  -6.139  -0.368  0.00  0.00    -0.028 A 
ATOM      6  C8  <0> d          -0.584  -6.694   0.838  0.00  0.00    -0.008 A 
ATOM      7  S1  <0> d          -0.710  -5.358   1.999  0.00  0.00    -0.073 SA
ATOM      8  C9  <0> d          -1.087  -4.051   0.862  0.00  0.00     0.114 A 
ATOM      9  N3  <0> d          -1.320  -2.757   0.970  0.00  0.00    -0.224 NA
ATOM     10  C10 <0> d          -0.292  -8.130   1.147  0.00  0.00     0.046 C 
ATOM     11  C11 <0> d           0.813  -8.636   0.211  0.00  0.00     0.005 C 
ATOM     12  C12 <0> d           0.158  -9.196  -1.048  0.00  0.00     0.001 C 
ATOM     13  C13 <0> d          -1.112  -8.410  -1.368  0.00  0.00     0.005 C 
ATOM     14  C14 <0> d          -0.780  -6.952  -1.659  0.00  0.00     0.041 C 
ENDROOT
BRANCH   3  15
ATOM     15  N4  <0> d          -1.415  -4.397  -2.784  0.00  0.00    -0.362 N 
ATOM     16  C18 <0> d          -0.181  -4.568  -3.567  0.00  0.00     0.152 C 
ATOM     17  C17 <0> d          -0.389  -3.949  -4.949  0.00  0.00     0.252 C 
ATOM     18  N5  <0> d          -1.587  -4.527  -5.570  0.00  0.00    -0.072 N 
ATOM     19  C16 <0> d          -2.778  -4.166  -4.791  0.00  0.00     0.252 C 
ATOM     20  H23 <0> d          -1.497  -5.531  -5.600  0.00  0.00     0.277 HD
ATOM     21  H28 <0> d          -1.681  -4.172  -6.510  0.00  0.00     0.277 HD
ATOM     22  C15 <0> d          -2.688  -4.801  -3.399  0.00  0.00     0.152 C 
ENDBRANCH   3  15
BRANCH   1  23
ATOM     23  C3  <0> d          -1.849  -0.561   0.046  0.00  0.00     0.314 C 
BRANCH  23  24
ATOM     24  N1  <0> d          -0.585   0.180  -0.058  0.00  0.00    -0.072 N 
ATOM     25  C1  <0> d          -0.860   1.623  -0.032  0.00  0.00     0.269 C 
ATOM     26  C2  <0> d           0.284  -0.174   1.073  0.00  0.00     0.269 C 
ATOM     27  H29 <0> d          -0.125  -0.060  -0.923  0.00  0.00     0.279 HD
ENDBRANCH  23  24
ENDBRANCH   1  23
TORSDOF 3
