REMARK  5 active torsions:
REMARK  status: ('A' for Active; 'I' for Inactive)
REMARK    1  A    between atoms: C6_7  and  C9_10 
REMARK    2  A    between atoms: C9_10  and  N2_11 
REMARK    3  A    between atoms: C12_14  and  C15_17 
REMARK    4  A    between atoms: C15_17  and  C16_18 
REMARK    5  A    between atoms: C15_17  and  O1_24 
ROOT
ATOM      1  N2  <0> d           0.371  -3.559  -1.408  0.00  0.00    -0.067 N 
ATOM      2  C10 <0> d           1.561  -4.138  -2.044  0.00  0.00     0.235 C 
ATOM      3  C11 <0> d           1.258  -4.454  -3.510  0.00  0.00     0.035 C 
ATOM      4  C12 <0> d           0.102  -5.455  -3.582  0.00  0.00     0.024 C 
ATOM      5  C13 <0> d          -1.111  -4.872  -2.851  0.00  0.00     0.035 C 
ATOM      6  C14 <0> d          -0.720  -4.540  -1.409  0.00  0.00     0.235 C 
ATOM      7  H25 <0> d           0.085  -2.738  -1.920  0.00  0.00     0.280 HD
ENDROOT
BRANCH   1   8
ATOM      8  C9  <0> d           0.691  -3.186  -0.024  0.00  0.00     0.271 C 
BRANCH   8   9
ATOM      9  C6  <0> d           1.709  -2.075  -0.025  0.00  0.00    -0.024 A 
ATOM     10  C5  <0> d           1.438  -0.593  -0.164  0.00  0.00     0.156 A 
ATOM     11  N1  <0> d           2.749   0.062  -0.105  0.00  0.00    -0.385 N 
ATOM     12  C4  <0> d           3.671  -0.858   0.045  0.00  0.00     0.038 A 
ATOM     13  H24 <0> d           2.908   1.018  -0.166  0.00  0.00     0.160 HD
ATOM     14  C3  <0> d           5.086  -0.772   0.159  0.00  0.00     0.030 A 
ATOM     15  C7  <0> d           3.050  -2.201   0.098  0.00  0.00    -0.004 A 
ATOM     16  C2  <0> d           5.827  -1.889   0.310  0.00  0.00     0.002 A 
ATOM     17  C1  <0> d           5.263  -3.171   0.362  0.00  0.00     0.001 A 
ATOM     18  C8  <0> d           3.928  -3.365   0.264  0.00  0.00     0.014 A 
ENDBRANCH   8   9
ENDBRANCH   1   8
BRANCH   4  19
ATOM     19  C15 <0> d          -0.260  -5.716  -5.046  0.00  0.00     0.174 C 
BRANCH  19  20
ATOM     20  C16 <0> d          -1.398  -6.701  -5.115  0.00  0.00     0.063 A 
ATOM     21  N3  <0> d          -1.286  -7.869  -4.513  0.00  0.00    -0.263 NA
ATOM     22  C20 <0> d          -2.258  -8.760  -4.542  0.00  0.00     0.117 A 
ATOM     23  C19 <0> d          -3.434  -8.501  -5.220  0.00  0.00     0.019 A 
ATOM     24  C18 <0> d          -3.586  -7.285  -5.869  0.00  0.00     0.003 A 
ATOM     25  C17 <0> d          -2.545  -6.372  -5.812  0.00  0.00     0.030 A 
ENDBRANCH  19  20
BRANCH  19  26
ATOM     26  O1  <0> d          -0.653  -4.489  -5.665  0.00  0.00    -0.389 OA
ATOM     27  H23 <0> d          -1.420  -4.069  -5.252  0.00  0.00     0.210 HD
ENDBRANCH  19  26
ENDBRANCH   4  19
TORSDOF 5
