REMARK  5 active torsions:
REMARK  status: ('A' for Active; 'I' for Inactive)
REMARK    1  A    between atoms: C2_2  and  C3_3 
REMARK    2  A    between atoms: C2_2  and  N5_21 
REMARK    3  A    between atoms: C3_3  and  C4_4 
REMARK    4  A    between atoms: C3_3  and  S2_10 
REMARK    5  A    between atoms: S2_10  and  C8_11 
ROOT
ATOM      1  C3  <0> d           0.844  -0.520   1.173  0.00  0.00     0.123 C 
ENDROOT
BRANCH   1   2
ATOM      2  C2  <0> d          -0.021  -0.058  -0.001  0.00  0.00     0.198 C 
ATOM      3  C1  <0> d          -0.234   1.455   0.088  0.00  0.00     0.041 C 
BRANCH   2   4
ATOM      4  N5  <0> d           0.654  -0.384  -1.264  0.00  0.00    -0.074 N 
ATOM      5  H11 <0> d           1.547   0.085  -1.299  0.00  0.00     0.274 HD
ATOM      6  H12 <0> d           0.795  -1.381  -1.323  0.00  0.00     0.274 HD
ATOM      7  H13 <0> d           0.084  -0.079  -2.039  0.00  0.00     0.274 HD
ENDBRANCH   2   4
ENDBRANCH   1   2
BRANCH   1   8
ATOM      8  C4  <0> d           1.101  -2.001   1.055  0.00  0.00    -0.000 A 
ATOM      9  S1  <0> d          -0.072  -3.346   1.025  0.00  0.00    -0.086 SA
ATOM     10  C7  <0> d           1.092  -4.691   0.864  0.00  0.00     0.051 A 
ATOM     11  C6  <0> d           2.279  -4.035   0.852  0.00  0.00     0.028 A 
ATOM     12 Br1  <0> d           0.756  -6.548   0.747  0.00  0.00    -0.043 Br
ATOM     13  C5  <0> d           2.283  -2.656   0.950  0.00  0.00     0.017 A 
ENDBRANCH   1   8
BRANCH   1  14
ATOM     14  S2  <0> d          -0.020  -0.179   2.732  0.00  0.00    -0.096 SA
BRANCH  14  15
ATOM     15  C8  <0> d           1.181  -0.535   3.971  0.00  0.00     0.126 A 
ATOM     16  N4  <0> d           2.369  -1.038   3.643  0.00  0.00    -0.233 NA
ATOM     17  C12 <0> d           3.276  -1.302   4.566  0.00  0.00     0.236 A 
ATOM     18  N3  <0> d           3.061  -1.099   5.847  0.00  0.00    -0.220 NA
ATOM     19  C10 <0> d           1.894  -0.601   6.271  0.00  0.00     0.181 A 
ATOM     20  C9  <0> d           0.905  -0.301   5.321  0.00  0.00     0.117 A 
ATOM     21  N1  <0> d           1.384  -0.288   7.477  0.00  0.00    -0.222 NA
ATOM     22  N2  <0> d          -0.171   0.188   6.030  0.00  0.00    -0.345 N 
ATOM     23  H3  <0> d          -1.017   0.485   5.660  0.00  0.00     0.167 HD
ATOM     24  C11 <0> d           0.173   0.175   7.337  0.00  0.00     0.210 A 
ENDBRANCH  14  15
ENDBRANCH   1  14
TORSDOF 5
