REMARK  4 active torsions:
REMARK  status: ('A' for Active; 'I' for Inactive)
REMARK    1  A    between atoms: C5_8  and  C7_11 
REMARK       I    between atoms: C7_11  and  N3_13 
REMARK    2  A    between atoms: N3_13  and  C8_14 
REMARK    3  A    between atoms: C8_14  and  C9_15 
REMARK    4  A    between atoms: C9_15  and  N4_27 
ROOT
ATOM      1  C7  <0> d           3.770  -3.704   0.417  0.00  0.00     0.258 C 
ATOM      2  O2  <0> d           3.521  -4.587   1.217  0.00  0.00    -0.267 OA
ATOM      3  N3  <0> d           3.606  -2.413   0.766  0.00  0.00    -0.354 N 
ATOM      4  H4  <0> d           3.873  -1.708   0.156  0.00  0.00     0.162 HD
ENDROOT
BRANCH   3   5
ATOM      5  C8  <0> d           3.024  -2.074   2.067  0.00  0.00     0.162 C 
BRANCH   5   6
ATOM      6  C9  <0> d           2.949  -0.552   2.211  0.00  0.00     0.143 C 
ATOM      7  C14 <0> d           4.357   0.039   2.113  0.00  0.00     0.041 C 
ATOM      8  C13 <0> d           5.231  -0.537   3.228  0.00  0.00     0.002 C 
ATOM      9  C12 <0> d           4.623  -0.183   4.587  0.00  0.00     0.000 C 
ATOM     10  C11 <0> d           3.216  -0.774   4.686  0.00  0.00     0.002 C 
ATOM     11  C10 <0> d           2.341  -0.198   3.570  0.00  0.00     0.041 C 
BRANCH   6  12
ATOM     12  N4  <0> d           2.123  -0.008   1.114  0.00  0.00    -0.061 N 
ATOM     13  C15 <0> d           0.748  -0.546   1.203  0.00  0.00     0.236 C 
ATOM     14  C16 <0> d          -0.053  -0.062  -0.007  0.00  0.00     0.028 C 
ATOM     15  C17 <0> d          -0.097   1.468  -0.007  0.00  0.00     0.003 C 
ATOM     16  C18 <0> d           1.335   2.011  -0.024  0.00  0.00     0.028 C 
ATOM     17  C19 <0> d           2.096   1.468   1.187  0.00  0.00     0.236 C 
ATOM     18  H27 <0> d           2.533  -0.290   0.216  0.00  0.00     0.281 HD
ENDBRANCH   6  12
ENDBRANCH   5   6
ENDBRANCH   3   5
BRANCH   1  19
ATOM     19  C5  <0> d           4.248  -4.046  -0.927  0.00  0.00     0.117 A 
ATOM     20  C4  <0> d           4.664  -3.032  -1.817  0.00  0.00     0.270 A 
ATOM     21  N1  <0> d           5.107  -3.366  -3.066  0.00  0.00    -0.266 N 
ATOM     22  O1  <0> d           4.626  -1.864  -1.473  0.00  0.00    -0.266 OA
ATOM     23  C1  <0> d           5.541  -2.494  -4.036  0.00  0.00     0.110 A 
ATOM     24  C3  <0> d           5.121  -4.696  -3.382  0.00  0.00     0.179 A 
ATOM     25  C2  <0> d           5.947  -2.966  -5.215  0.00  0.00     0.071 A 
ATOM     26  S1  <0> d           5.728  -4.724  -5.002  0.00  0.00    -0.062 SA
ATOM     27  N2  <0> d           4.737  -5.651  -2.561  0.00  0.00    -0.235 NA
ATOM     28  C6  <0> d           4.304  -5.382  -1.341  0.00  0.00     0.142 A 
ENDBRANCH   1  19
TORSDOF 4
