REMARK  4 active torsions:
REMARK  status: ('A' for Active; 'I' for Inactive)
REMARK    1  A    between atoms: C3_4  and  C4_7 
REMARK    2  A    between atoms: C4_7  and  N4_8 
REMARK    3  A    between atoms: N4_8  and  C5_9 
REMARK    4  A    between atoms: C10_14  and  N5_15 
ROOT
ATOM      1  C5  <0> d           1.689  -4.952  -2.373  0.00  0.00     0.059 A 
ATOM      2  C6  <0> d           0.643  -5.720  -2.865  0.00  0.00     0.055 A 
ATOM      3  C7  <0> d           0.908  -6.827  -3.650  0.00  0.00     0.036 A 
ATOM      4  C8  <0> d           2.215  -7.173  -3.947  0.00  0.00     0.026 A 
ATOM      5  C9  <0> d           3.262  -6.414  -3.460  0.00  0.00     0.036 A 
ATOM      6  C10 <0> d           3.005  -5.299  -2.677  0.00  0.00     0.084 A 
ATOM      7 Cl1  <0> d          -0.403  -7.786  -4.264  0.00  0.00    -0.084 Cl
ENDROOT
BRANCH   1   8
ATOM      8  N4  <0> d           1.424  -3.833  -1.579  0.00  0.00    -0.382 N 
ATOM      9  H7  <0> d           2.150  -3.252  -1.303  0.00  0.00     0.160 HD
BRANCH   8  10
ATOM     10  C4  <0> d           0.050  -3.536  -1.166  0.00  0.00     0.182 C 
BRANCH  10  11
ATOM     11  C3  <0> d           0.037  -2.286  -0.325  0.00  0.00     0.093 A 
ATOM     12  C2  <0> d          -0.202  -1.024  -0.753  0.00  0.00     0.144 A 
ATOM     13  N1  <0> d          -0.112  -0.232   0.341  0.00  0.00    -0.265 N 
ATOM     14  C1  <0> d          -0.296   1.221   0.365  0.00  0.00     0.181 C 
ATOM     15  N3  <0> d           0.170  -0.974   1.354  0.00  0.00    -0.067 NA
ATOM     16  N2  <0> d           0.260  -2.205   0.992  0.00  0.00    -0.134 NA
ENDBRANCH  10  11
ENDBRANCH   8  10
ENDBRANCH   1   8
BRANCH   6  17
ATOM     17  N5  <0> d           4.067  -4.524  -2.187  0.00  0.00    -0.243 N 
ATOM     18  N6  <0> d           4.224  -4.080  -0.867  0.00  0.00    -0.180 NA
ATOM     19  C13 <0> d           5.335  -3.391  -0.796  0.00  0.00     0.140 A 
ATOM     20  C12 <0> d           5.915  -3.364  -2.069  0.00  0.00     0.040 A 
ATOM     21  C11 <0> d           5.117  -4.067  -2.906  0.00  0.00     0.120 A 
ENDBRANCH   6  17
TORSDOF 4
