REMARK  6 active torsions:
REMARK  status: ('A' for Active; 'I' for Inactive)
REMARK    1  A    between atoms: C9_11  and  C10_12 
REMARK    2  A    between atoms: C10_12  and  C11_13 
REMARK    3  A    between atoms: C11_13  and  N2_14 
REMARK       I    between atoms: N2_14  and  C12_15 
REMARK       I    between atoms: C12_15  and  N3_17 
REMARK    4  A    between atoms: N3_17  and  C13_18 
REMARK    5  A    between atoms: C13_18  and  C14_19 
REMARK    6  A    between atoms: C14_19  and  C15_20 
ROOT
ATOM      1  N2  <0> d           1.518  -6.746  -2.068  0.00  0.00    -0.343 N 
ATOM      2  C12 <0> d           2.684  -7.178  -2.588  0.00  0.00     0.316 C 
ATOM      3  O1  <0> d           3.728  -6.641  -2.270  0.00  0.00    -0.247 OA
ATOM      4  N3  <0> d           2.693  -8.204  -3.462  0.00  0.00    -0.343 N 
ATOM      5  H13 <0> d           0.686  -7.173  -2.322  0.00  0.00     0.164 HD
ATOM      6  H14 <0> d           1.860  -8.631  -3.716  0.00  0.00     0.164 HD
ENDROOT
BRANCH   1   7
ATOM      7  C11 <0> d           1.509  -5.630  -1.118  0.00  0.00     0.129 C 
BRANCH   7   8
ATOM      8  C10 <0> d           0.070  -5.342  -0.684  0.00  0.00     0.060 C 
BRANCH   8   9
ATOM      9  C9  <0> d           0.060  -4.195   0.293  0.00  0.00    -0.029 A 
ATOM     10  C5  <0> d           0.040  -2.768  -0.038  0.00  0.00    -0.002 A 
ATOM     11  C4  <0> d           0.024  -2.050  -1.236  0.00  0.00     0.015 A 
ATOM     12  C6  <0> d           0.037  -2.083   1.190  0.00  0.00     0.043 A 
ATOM     13  C3  <0> d           0.006  -0.685  -1.208  0.00  0.00     0.007 A 
ATOM     14  C2  <0> d           0.002  -0.004   0.002  0.00  0.00    -0.060 A 
ATOM     15  C1  <0> d          -0.018   1.503   0.010  0.00  0.00     0.048 C 
ATOM     16  C7  <0> d           0.023  -0.692   1.195  0.00  0.00     0.037 A 
ATOM     17  N1  <0> d           0.054  -3.035   2.186  0.00  0.00    -0.365 N 
ATOM     18  H1  <0> d           0.057  -2.846   3.137  0.00  0.00     0.165 HD
ATOM     19  C8  <0> d           0.068  -4.286   1.632  0.00  0.00     0.096 A 
ENDBRANCH   8   9
ENDBRANCH   7   8
ENDBRANCH   1   7
BRANCH   4  20
ATOM     20  C13 <0> d           3.960  -8.673  -4.028  0.00  0.00     0.132 C 
BRANCH  20  21
ATOM     21  C14 <0> d           3.691  -9.838  -4.983  0.00  0.00     0.096 C 
BRANCH  21  22
ATOM     22  C15 <0> d           4.995 -10.321  -5.565  0.00  0.00     0.084 A 
ATOM     23  N5  <0> d           5.519  -9.935  -6.748  0.00  0.00    -0.350 N 
ATOM     24  C17 <0> d           6.705 -10.601  -6.902  0.00  0.00     0.108 A 
ATOM     25  C18 <0> d           4.930  -8.979  -7.690  0.00  0.00     0.156 C 
ATOM     26  C16 <0> d           6.861 -11.377  -5.812  0.00  0.00     0.106 A 
ATOM     27  N4  <0> d           5.801 -11.185  -5.012  0.00  0.00    -0.354 N 
ATOM     28  H24 <0> d           5.656 -11.621  -4.158  0.00  0.00     0.166 HD
ENDBRANCH  21  22
ENDBRANCH  20  21
ENDBRANCH   4  20
TORSDOF 6
