REMARK  5 active torsions:
REMARK  status: ('A' for Active; 'I' for Inactive)
REMARK    1  A    between atoms: C6_10  and  S1_11 
REMARK    2  A    between atoms: S1_11  and  C7_12 
REMARK    3  A    between atoms: C7_12  and  C8_13 
REMARK       I    between atoms: C8_13  and  N5_15 
REMARK    4  A    between atoms: N5_15  and  C9_16 
REMARK    5  A    between atoms: C10_17  and  C18_26 
REMARK       I    between atoms: C18_26  and  N6_28 
ROOT
ATOM      1  C8  <0> d          -0.718   1.572   1.248  0.00  0.00     0.232 C 
ATOM      2  O1  <0> d          -1.714   2.256   1.150  0.00  0.00    -0.272 OA
ATOM      3  N5  <0> d          -0.242   1.246   2.466  0.00  0.00    -0.320 N 
ATOM      4  H8  <0> d           0.555   0.699   2.544  0.00  0.00     0.169 HD
ENDROOT
BRANCH   3   5
ATOM      5  C9  <0> d          -0.891   1.693   3.607  0.00  0.00     0.093 A 
ATOM      6  S2  <0> d          -2.311   2.678   3.721  0.00  0.00    -0.075 SA
ATOM      7  C12 <0> d          -2.454   2.771   5.483  0.00  0.00    -0.008 A 
ATOM      8  C11 <0> d          -1.410   2.054   5.952  0.00  0.00    -0.026 A 
ATOM      9  C13 <0> d          -3.494   3.486   6.289  0.00  0.00     0.051 C 
ATOM     10  C10 <0> d          -0.556   1.465   4.934  0.00  0.00     0.072 A 
ATOM     11  C16 <0> d          -1.176   1.896   7.449  0.00  0.00     0.041 C 
ATOM     12  C15 <0> d          -1.955   2.987   8.187  0.00  0.00     0.009 C 
ATOM     13  C14 <0> d          -3.418   2.977   7.736  0.00  0.00    -0.014 C 
ATOM     14  C17 <0> d          -4.244   3.890   8.645  0.00  0.00     0.010 C 
BRANCH  10  15
ATOM     15  C18 <0> d           0.615   0.661   5.296  0.00  0.00     0.252 C 
ATOM     16  O2  <0> d           1.698   1.196   5.445  0.00  0.00    -0.268 OA
ATOM     17  N6  <0> d           0.492  -0.671   5.464  0.00  0.00    -0.366 N 
ATOM     18  H18 <0> d          -0.371  -1.097   5.345  0.00  0.00     0.159 HD
ATOM     19  H19 <0> d           1.267  -1.203   5.703  0.00  0.00     0.159 HD
ENDBRANCH  10  15
ENDBRANCH   3   5
BRANCH   1  20
ATOM     20  C7  <0> d          -0.013   1.086   0.008  0.00  0.00     0.185 C 
BRANCH  20  21
ATOM     21  S1  <0> d          -0.890   1.687  -1.462  0.00  0.00    -0.080 SA
BRANCH  21  22
ATOM     22  C6  <0> d           0.045   1.043  -2.809  0.00  0.00     0.211 A 
ATOM     23  N1  <0> d          -0.221   1.218  -4.135  0.00  0.00    -0.122 N 
ATOM     24  C4  <0> d          -1.196   1.878  -4.828  0.00  0.00     0.035 A 
ATOM     25  C5  <0> d           0.771   0.542  -4.813  0.00  0.00     0.754 A 
ATOM     26  C3  <0> d          -1.170   1.853  -6.182  0.00  0.00     0.053 A 
ATOM     27  C19 <0> d          -2.284   2.622  -4.097  0.00  0.00     0.069 C 
ATOM     28  C2  <0> d          -0.146   1.151  -6.840  0.00  0.00     0.051 A 
ATOM     29  C1  <0> d          -0.111   1.119  -8.346  0.00  0.00     0.071 C 
ATOM     30  N2  <0> d           0.785   0.532  -6.154  0.00  0.00    -0.066 NA
ATOM     31  N3  <0> d           1.556   0.003  -3.898  0.00  0.00     0.047 NA
ATOM     32  N4  <0> d           1.125   0.301  -2.724  0.00  0.00    -0.107 NA
ENDBRANCH  21  22
ENDBRANCH  20  21
ENDBRANCH   1  20
TORSDOF 5
