REMARK  5 active torsions:
REMARK  status: ('A' for Active; 'I' for Inactive)
REMARK    1  A    between atoms: C6_6  and  C14_16 
REMARK    2  A    between atoms: N1_8  and  C8_9 
REMARK       I    between atoms: C14_16  and  N2_18 
REMARK    3  A    between atoms: N2_18  and  C15_19 
REMARK    4  A    between atoms: C22_28  and  C24_31 
REMARK    5  A    between atoms: C24_31  and  O5_32 
ROOT
ATOM      1  C1  <0> d           1.147   1.513   0.141  0.00  0.00     0.073 C 
ATOM      2  C2  <0> d           0.784   0.051   0.123  0.00  0.00     0.065 A 
ATOM      3  C3  <0> d           0.453  -0.563  -1.077  0.00  0.00     0.113 A 
ATOM      4  C4  <0> d           0.119  -1.931  -1.068  0.00  0.00     0.011 A 
ATOM      5  C5  <0> d          -0.228  -2.599  -2.324  0.00  0.00     0.036 C 
ATOM      6  C6  <0> d           0.045  -1.925  -3.494  0.00  0.00     0.084 C 
ATOM      7  C7  <0> d           0.665  -0.590  -3.377  0.00  0.00     0.164 C 
ATOM      8  N1  <0> d           1.412  -0.105  -4.345  0.00  0.00    -0.336 N 
ATOM      9  O1  <0> d           0.443   0.123  -2.243  0.00  0.00    -0.290 OA
ATOM     10  C22 <0> d           0.132  -2.616   0.153  0.00  0.00    -0.004 A 
ATOM     11  C23 <0> d           0.473  -1.921   1.294  0.00  0.00     0.127 A 
ATOM     12  N3  <0> d           0.788  -0.639   1.246  0.00  0.00    -0.262 NA
ATOM     13  H22 <0> d           1.645  -0.663  -5.103  0.00  0.00     0.168 HD
ENDROOT
BRANCH   6  14
ATOM     14  C14 <0> d          -0.269  -2.513  -4.809  0.00  0.00     0.260 C 
ATOM     15  O2  <0> d          -0.674  -3.657  -4.883  0.00  0.00    -0.267 OA
ATOM     16  N2  <0> d          -0.106  -1.782  -5.930  0.00  0.00    -0.323 N 
ATOM     17  H12 <0> d           0.274  -0.891  -5.877  0.00  0.00     0.169 HD
BRANCH  16  18
ATOM     18  C15 <0> d          -0.485  -2.309  -7.169  0.00  0.00     0.033 C 
ATOM     19  C20 <0> d          -0.916  -3.720  -7.277  0.00  0.00     0.028 C 
ATOM     20  C19 <0> d          -1.765  -4.077  -8.247  0.00  0.00     0.010 C 
ATOM     21  C18 <0> d          -2.181  -3.001  -9.195  0.00  0.00     0.179 C 
ATOM     22  C17 <0> d          -0.895  -2.194  -9.539  0.00  0.00     0.181 C 
ATOM     23  O3  <0> d          -2.603  -3.371 -10.506  0.00  0.00    -0.355 OA
ATOM     24  C16 <0> d          -0.454  -1.532  -8.277  0.00  0.00     0.037 C 
ATOM     25  O4  <0> d          -1.346  -1.389 -10.616  0.00  0.00    -0.355 OA
ATOM     26  C21 <0> d          -2.372  -2.162 -11.277  0.00  0.00     0.339 C 
ENDBRANCH  16  18
ENDBRANCH   6  14
BRANCH   8  27
ATOM     27  C8  <0> d           1.860   1.185  -4.282  0.00  0.00     0.034 A 
ATOM     28  C13 <0> d           3.190   1.482  -4.588  0.00  0.00     0.029 A 
ATOM     29  C12 <0> d           3.633   2.787  -4.527  0.00  0.00     0.002 A 
ATOM     30  C11 <0> d           2.767   3.799  -4.153  0.00  0.00     0.000 A 
ATOM     31  C10 <0> d           1.450   3.511  -3.843  0.00  0.00     0.002 A 
ATOM     32  C9  <0> d           0.991   2.212  -3.905  0.00  0.00     0.029 A 
ENDBRANCH   8  27
BRANCH  10  33
ATOM     33  C24 <0> d          -0.221  -4.080   0.218  0.00  0.00     0.205 C 
BRANCH  33  34
ATOM     34  O5  <0> d          -0.130  -4.531   1.571  0.00  0.00    -0.396 OA
ATOM     35  H21 <0> d          -0.344  -5.467   1.689  0.00  0.00     0.209 HD
ENDBRANCH  33  34
ENDBRANCH  10  33
TORSDOF 5
