REMARK  6 active torsions:
REMARK  status: ('A' for Active; 'I' for Inactive)
REMARK    1  A    between atoms: C2_2  and  C3_4 
REMARK    2  A    between atoms: N1_7  and  C8_10 
REMARK    3  A    between atoms: C8_10  and  C9_11 
REMARK       I    between atoms: C9_11  and  N2_13 
REMARK    4  A    between atoms: N2_13  and  C10_14 
REMARK    5  A    between atoms: C11_15  and  C17_22 
REMARK    6  A    between atoms: C17_22  and  O4_24 
ROOT
ATOM      1  C9  <0> d          -2.365   2.061   0.026  0.00  0.00     0.240 C 
ATOM      2  O2  <0> d          -2.527   0.859   0.020  0.00  0.00    -0.271 OA
ATOM      3  N2  <0> d          -1.119   2.573   0.022  0.00  0.00    -0.319 N 
ATOM      4  H10 <0> d          -0.972   3.663   0.026  0.00  0.00     0.169 HD
ENDROOT
BRANCH   3   5
ATOM      5  C10 <0> d          -0.021   1.726   0.011  0.00  0.00     0.094 A 
ATOM      6  S1  <0> d           0.002  -0.004   0.002  0.00  0.00    -0.075 SA
ATOM      7  C13 <0> d           1.758  -0.271  -0.016  0.00  0.00    -0.008 A 
ATOM      8  C12 <0> d           2.292   0.964  -0.015  0.00  0.00    -0.026 A 
ATOM      9  C14 <0> d           2.814  -1.342  -0.029  0.00  0.00     0.047 C 
ATOM     10  C11 <0> d           1.323   2.060   0.001  0.00  0.00     0.080 A 
ATOM     11  C16 <0> d           3.816   0.833  -0.033  0.00  0.00     0.041 C 
ATOM     12  C15 <0> d           4.109  -0.617   0.400  0.00  0.00     0.010 C 
BRANCH  10  13
ATOM     13  C17 <0> d           1.759   3.458   0.004  0.00  0.00     0.296 C 
ATOM     14  O3  <0> d           1.950   4.033   1.059  0.00  0.00    -0.259 OA
BRANCH  13  15
ATOM     15  O4  <0> d           1.948   4.108  -1.163  0.00  0.00    -0.322 OA
ATOM     16  C18 <0> d           2.380   5.492  -1.083  0.00  0.00     0.213 C 
ENDBRANCH  13  15
ENDBRANCH  10  13
ENDBRANCH   3   5
BRANCH   1  17
ATOM     17  C8  <0> d          -3.558   2.981   0.037  0.00  0.00     0.230 C 
BRANCH  17  18
ATOM     18  N1  <0> d          -4.789   2.186   0.039  0.00  0.00    -0.358 N 
ATOM     19  C5  <0> d          -5.318   1.833   1.194  0.00  0.00     0.092 A 
ATOM     20  C4  <0> d          -6.477   1.084   1.244  0.00  0.00     0.032 A 
ATOM     21  C3  <0> d          -7.089   0.699   0.044  0.00  0.00     0.012 A 
ATOM     22  C7  <0> d          -6.491   1.097  -1.159  0.00  0.00     0.032 A 
ATOM     23  C6  <0> d          -5.333   1.850  -1.113  0.00  0.00     0.092 A 
BRANCH  21  24
ATOM     24  C2  <0> d          -8.328  -0.102   0.046  0.00  0.00     0.155 C 
ATOM     25  C1  <0> d          -8.968  -0.504  -1.258  0.00  0.00     0.096 C 
ATOM     26  O1  <0> d          -8.829  -0.436   1.093  0.00  0.00    -0.293 OA
ENDBRANCH  21  24
ENDBRANCH  17  18
ENDBRANCH   1  17
TORSDOF 6
