REMARK  3 active torsions:
REMARK  status: ('A' for Active; 'I' for Inactive)
REMARK    1  A    between atoms: O1_2  and  C2_3 
REMARK    2  A    between atoms: C4_5  and  C8_12 
REMARK    3  A    between atoms: C7_8  and  O2_9 
ROOT
ATOM      1  C2  <0> d           1.652   2.927  -1.510  0.00  0.00     0.103 A 
ATOM      2  C3  <0> d           2.982   3.264  -1.371  0.00  0.00     0.052 A 
ATOM      3  C4  <0> d           3.659   2.955  -0.181  0.00  0.00    -0.013 A 
ATOM      4  C5  <0> d           2.978   2.304   0.860  0.00  0.00     0.041 A 
ATOM      5  C6  <0> d           1.648   1.978   0.712  0.00  0.00     0.065 A 
ATOM      6  C7  <0> d           0.981   2.280  -0.470  0.00  0.00     0.117 A 
ATOM      7 Br1  <0> d           0.728   1.109   2.117  0.00  0.00    -0.046 Br
ATOM      8 Br2  <0> d           3.883   1.883   2.466  0.00  0.00    -0.049 Br
ENDROOT
BRANCH   3   9
ATOM      9  C8  <0> d           5.069   3.309  -0.027  0.00  0.00     0.035 C 
ATOM     10  C9  <0> d           5.977   2.981  -1.017  0.00  0.00     0.101 A 
ATOM     11  C12 <0> d           7.360   3.495  -0.996  0.00  0.00     0.265 A 
ATOM     12  C10 <0> d           5.607   2.096  -2.139  0.00  0.00     0.265 A 
ATOM     13  N2  <0> d           8.190   3.132  -1.996  0.00  0.00    -0.275 N 
ATOM     14  O5  <0> d           7.742   4.226  -0.101  0.00  0.00    -0.267 OA
ATOM     15  C11 <0> d           7.783   2.328  -2.988  0.00  0.00     0.329 A 
ATOM     16  H8  <0> d           9.103   3.461  -1.997  0.00  0.00     0.173 HD
ATOM     17  N1  <0> d           6.543   1.825  -3.072  0.00  0.00    -0.275 N 
ATOM     18  O4  <0> d           8.580   2.039  -3.858  0.00  0.00    -0.246 OA
ATOM     19  H7  <0> d           6.316   1.248  -3.818  0.00  0.00     0.173 HD
ATOM     20  O3  <0> d           4.487   1.630  -2.224  0.00  0.00    -0.267 OA
ENDBRANCH   3   9
BRANCH   1  21
ATOM     21  O1  <0> d           0.992   3.225  -2.662  0.00  0.00    -0.353 OA
ATOM     22  C1  <0> d           1.740   3.886  -3.684  0.00  0.00     0.210 C 
ENDBRANCH   1  21
BRANCH   6  23
ATOM     23  O2  <0> d          -0.328   1.951  -0.612  0.00  0.00    -0.357 OA
ATOM     24  H5  <0> d          -0.474   1.072  -0.989  0.00  0.00     0.218 HD
ENDBRANCH   6  23
TORSDOF 3
