REMARK  10 active torsions:
REMARK  status: ('A' for Active; 'I' for Inactive)
REMARK    1  A    between atoms: N1_2  and  C2_3 
REMARK    2  A    between atoms: N1_2  and  C16_21 
REMARK    3  A    between atoms: C2_3  and  C3_4 
REMARK    4  A    between atoms: C3_4  and  O3_20 
REMARK    5  A    between atoms: N2_8  and  C8_11 
REMARK    6  A    between atoms: C8_11  and  C9_12 
REMARK    7  A    between atoms: C13_16  and  O2_18 
REMARK    8  A    between atoms: C16_21  and  C17_22 
REMARK    9  A    between atoms: C17_22  and  C21_26 
REMARK   10  A    between atoms: C21_26  and  O4_27 
ROOT
ATOM      1  C3  <0> d          -0.402   0.407   2.145  0.00  0.00     0.162 C 
ATOM      2  C4  <0> d           0.185  -0.120   3.457  0.00  0.00     0.051 C 
ATOM      3  C5  <0> d          -0.816   0.161   4.583  0.00  0.00     0.023 C 
ATOM      4  C6  <0> d          -2.059  -0.701   4.360  0.00  0.00     0.126 C 
ATOM      5  N2  <0> d          -2.548  -0.548   2.996  0.00  0.00    -0.345 N 
ATOM      6  C7  <0> d          -1.815  -0.074   1.988  0.00  0.00     0.256 C 
ATOM      7  O1  <0> d          -2.317  -0.030   0.884  0.00  0.00    -0.270 OA
ENDROOT
BRANCH   1   8
ATOM      8  C2  <0> d           0.441  -0.098   0.972  0.00  0.00     0.282 C 
BRANCH   8   9
ATOM      9  N1  <0> d          -0.070   0.475  -0.281  0.00  0.00    -0.071 N 
ATOM     10  C1  <0> d           0.086   1.936  -0.250  0.00  0.00     0.269 C 
ATOM     11  H33 <0> d          -1.046   0.244  -0.383  0.00  0.00     0.279 HD
BRANCH   9  12
ATOM     12  C16 <0> d           0.685  -0.074  -1.415  0.00  0.00     0.246 C 
BRANCH  12  13
ATOM     13  C17 <0> d           0.406  -1.573  -1.534  0.00  0.00     0.005 C 
ATOM     14  C20 <0> d           1.040  -2.221  -2.777  0.00  0.00     0.013 C 
ATOM     15  C19 <0> d           1.380  -3.423  -1.881  0.00  0.00     0.002 C 
ATOM     16  C18 <0> d           1.353  -2.446  -0.694  0.00  0.00     0.013 C 
BRANCH  13  17
ATOM     17  C21 <0> d          -1.073  -1.919  -1.351  0.00  0.00     0.175 C 
BRANCH  17  18
ATOM     18  O4  <0> d          -1.240  -3.337  -1.398  0.00  0.00    -0.400 OA
ATOM     19  H32 <0> d          -2.156  -3.629  -1.289  0.00  0.00     0.209 HD
ENDBRANCH  17  18
ENDBRANCH  13  17
ENDBRANCH  12  13
ENDBRANCH   9  12
ENDBRANCH   8   9
ENDBRANCH   1   8
BRANCH   1  20
ATOM     20  O3  <0> d          -0.386   1.836   2.160  0.00  0.00    -0.378 OA
ATOM     21  H21 <0> d          -0.900   2.227   2.879  0.00  0.00     0.211 HD
ENDBRANCH   1  20
BRANCH   5  22
ATOM     22  C8  <0> d          -3.932  -0.939   2.715  0.00  0.00     0.164 C 
BRANCH  22  23
ATOM     23  C9  <0> d          -4.841   0.245   2.922  0.00  0.00    -0.038 A 
ATOM     24  C14 <0> d          -5.112   1.099   1.871  0.00  0.00     0.045 A 
ATOM     25  C13 <0> d          -5.954   2.186   2.061  0.00  0.00     0.068 A 
ATOM     26  C12 <0> d          -6.511   2.418   3.310  0.00  0.00     0.037 A 
ATOM     27  C11 <0> d          -6.232   1.564   4.359  0.00  0.00     0.003 A 
ATOM     28  C10 <0> d          -5.398   0.479   4.166  0.00  0.00     0.009 A 
BRANCH  25  29
ATOM     29  O2  <0> d          -6.227   3.024   1.027  0.00  0.00    -0.356 OA
ATOM     30  C15 <0> d          -7.097   4.125   1.297  0.00  0.00     0.210 C 
ENDBRANCH  25  29
ENDBRANCH  22  23
ENDBRANCH   5  22
TORSDOF 10
