REMARK  3 active torsions:
REMARK  status: ('A' for Active; 'I' for Inactive)
REMARK    1  A    between atoms: C3_3  and  C8_9 
REMARK    2  A    between atoms: C11_12  and  C12_14 
REMARK    3  A    between atoms: N2_19  and  C16_22 
ROOT
ATOM      1  C12 <0> d          -2.539   1.671   0.021  0.00  0.00     0.060 C 
ATOM      2  C13 <0> d          -1.209   2.073   0.018  0.00  0.00     0.106 A 
ATOM      3  C14 <0> d          -0.691   3.451   0.026  0.00  0.00     0.276 A 
ATOM      4  O2  <0> d          -1.351   4.474   0.037  0.00  0.00    -0.266 OA
ATOM      5  N1  <0> d           0.653   3.365   0.013  0.00  0.00    -0.256 N 
ATOM      6  N2  <0> d           1.056   2.029   0.003  0.00  0.00    -0.217 N 
ATOM      7  C15 <0> d          -0.014   1.213   0.009  0.00  0.00     0.282 A 
ATOM      8  O3  <0> d           0.002  -0.004   0.002  0.00  0.00    -0.265 OA
ATOM      9  H10 <0> d           1.256   4.124   0.012  0.00  0.00     0.191 HD
ENDROOT
BRANCH   1  10
ATOM     10  C11 <0> d          -3.562   2.631   0.031  0.00  0.00     0.077 A 
ATOM     11  C10 <0> d          -4.925   2.369   0.035  0.00  0.00     0.040 A 
ATOM     12  C9  <0> d          -5.572   3.603   0.045  0.00  0.00     0.041 A 
ATOM     13  C8  <0> d          -4.592   4.574   0.047  0.00  0.00     0.087 A 
ATOM     14  O1  <0> d          -3.391   3.971   0.043  0.00  0.00    -0.310 OA
BRANCH  13  15
ATOM     15  C3  <0> d          -4.824   6.031   0.058  0.00  0.00     0.005 A 
ATOM     16  C2  <0> d          -4.168   6.839   0.989  0.00  0.00    -0.027 A 
ATOM     17  C1  <0> d          -3.220   6.225   1.988  0.00  0.00     0.051 C 
ATOM     18  C7  <0> d          -4.385   8.202   0.989  0.00  0.00     0.040 A 
ATOM     19  C6  <0> d          -5.260   8.767   0.076  0.00  0.00     0.024 A 
ATOM     20 Cl1  <0> d          -3.565   9.210   2.140  0.00  0.00    -0.084 Cl
ATOM     21  C5  <0> d          -5.917   7.971  -0.845  0.00  0.00     0.003 A 
ATOM     22  C4  <0> d          -5.705   6.608  -0.860  0.00  0.00     0.015 A 
ENDBRANCH  13  15
ENDBRANCH   1  10
BRANCH   6  23
ATOM     23  C16 <0> d           2.387   1.599  -0.012  0.00  0.00     0.060 A 
ATOM     24  C21 <0> d           3.419   2.528  -0.017  0.00  0.00     0.031 A 
ATOM     25  C20 <0> d           4.732   2.099  -0.031  0.00  0.00     0.002 A 
ATOM     26  C19 <0> d           5.019   0.747  -0.041  0.00  0.00     0.000 A 
ATOM     27  C18 <0> d           3.994  -0.181  -0.036  0.00  0.00     0.002 A 
ATOM     28  C17 <0> d           2.679   0.241  -0.016  0.00  0.00     0.031 A 
ENDBRANCH   6  23
TORSDOF 3
