REMARK  3 active torsions:
REMARK  status: ('A' for Active; 'I' for Inactive)
REMARK    1  A    between atoms: C5_5  and  C13_18 
REMARK    2  A    between atoms: C6_6  and  N1_8 
REMARK    3  A    between atoms: N2_11  and  S1_14 
ROOT
ATOM      1  N1  <0> d          -0.733  -2.595   0.862  0.00  0.00    -0.063 N 
ATOM      2  C8  <0> d           0.445  -3.423   1.153  0.00  0.00     0.256 C 
ATOM      3  C9  <0> d           0.001  -4.716   1.844  0.00  0.00     0.162 C 
ATOM      4  N2  <0> d          -1.010  -5.373   1.001  0.00  0.00    -0.308 N 
ATOM      5  C10 <0> d          -2.146  -4.568   0.526  0.00  0.00     0.162 C 
ATOM      6  C11 <0> d          -1.601  -3.282  -0.103  0.00  0.00     0.256 C 
ATOM      7  H24 <0> d          -1.245  -2.432   1.716  0.00  0.00     0.280 HD
ENDROOT
BRANCH   1   8
ATOM      8  C6  <0> d          -0.299  -1.310   0.300  0.00  0.00     0.203 C 
ATOM      9  C5  <0> d           0.486  -0.530   1.357  0.00  0.00     0.117 C 
ATOM     10  C4  <0> d           0.938   0.809   0.771  0.00  0.00     0.018 C 
ATOM     11  C3  <0> d           1.831   0.558  -0.446  0.00  0.00     0.005 C 
ATOM     12  C2  <0> d           1.046  -0.222  -1.503  0.00  0.00    -0.017 C 
ATOM     13  C1  <0> d           1.939  -0.472  -2.719  0.00  0.00     0.010 C 
ATOM     14  C7  <0> d           0.594  -1.561  -0.917  0.00  0.00     0.038 C 
BRANCH   9  15
ATOM     15  C13 <0> d          -0.394  -0.283   2.555  0.00  0.00     0.179 C 
ATOM     16  O3  <0> d          -1.441   0.330   2.427  0.00  0.00    -0.648 OA
ATOM     17  O4  <0> d          -0.059  -0.695   3.652  0.00  0.00    -0.648 OA
ENDBRANCH   9  15
ENDBRANCH   1   8
BRANCH   4  18
ATOM     18  S1  <0> d          -0.872  -6.973   0.597  0.00  0.00     0.224 S 
ATOM     19  O1  <0> d          -1.579  -7.100  -0.629  0.00  0.00    -0.206 OA
ATOM     20  O2  <0> d           0.522  -7.244   0.660  0.00  0.00    -0.206 OA
ATOM     21  C12 <0> d          -1.742  -7.864   1.915  0.00  0.00     0.186 C 
ENDBRANCH   4  18
TORSDOF 3
