REMARK  5 active torsions:
REMARK  status: ('A' for Active; 'I' for Inactive)
REMARK    1  A    between atoms: N3_9  and  C7_12 
REMARK    2  A    between atoms: C7_12  and  C8_13 
REMARK       I    between atoms: C8_13  and  N5_15 
REMARK    3  A    between atoms: N5_15  and  C9_16 
REMARK    4  A    between atoms: C9_16  and  C10_17 
REMARK    5  A    between atoms: C11_21  and  C12_23 
ROOT
ATOM      1  C8  <0> d          -1.380  -4.235  -4.341  0.00  0.00     0.236 C 
ATOM      2  O2  <0> d          -2.307  -3.694  -3.776  0.00  0.00    -0.272 OA
ATOM      3  N5  <0> d          -1.618  -5.170  -5.282  0.00  0.00    -0.352 N 
ATOM      4  H9  <0> d          -0.877  -5.603  -5.733  0.00  0.00     0.162 HD
ENDROOT
BRANCH   1   5
ATOM      5  C7  <0> d           0.037  -3.861  -3.991  0.00  0.00     0.235 C 
BRANCH   5   6
ATOM      6  N3  <0> d           0.028  -2.831  -2.949  0.00  0.00    -0.299 N 
ATOM      7  C5  <0> d           0.039  -3.192  -1.645  0.00  0.00     0.264 A 
ATOM      8  C3  <0> d           0.029  -2.121  -0.648  0.00  0.00     0.099 A 
ATOM      9  O1  <0> d           0.057  -4.364  -1.313  0.00  0.00    -0.267 OA
ATOM     10  C2  <0> d           0.008  -0.793  -1.103  0.00  0.00     0.164 A 
ATOM     11  C4  <0> d           0.035  -2.080   0.759  0.00  0.00     0.160 A 
ATOM     12  N1  <0> d           0.002  -0.004   0.002  0.00  0.00    -0.256 N 
ATOM     13  N4  <0> d          -0.002  -0.555  -2.424  0.00  0.00    -0.224 NA
ATOM     14  C1  <0> d          -0.018   1.461   0.010  0.00  0.00     0.182 C 
ATOM     15  N2  <0> d           0.025  -0.830   1.133  0.00  0.00    -0.182 NA
ATOM     16  C6  <0> d           0.008  -1.520  -3.297  0.00  0.00     0.215 A 
ENDBRANCH   5   6
ENDBRANCH   1   5
BRANCH   3  17
ATOM     17  C9  <0> d          -2.996  -5.533  -5.622  0.00  0.00     0.202 C 
BRANCH  17  18
ATOM     18  C10 <0> d          -2.986  -6.593  -6.693  0.00  0.00     0.140 A 
ATOM     19  N8  <0> d          -2.904  -6.380  -7.980  0.00  0.00    -0.210 NA
ATOM     20  C11 <0> d          -2.920  -7.549  -8.636  0.00  0.00     0.188 A 
ATOM     21  N7  <0> d          -3.022  -8.524  -7.756  0.00  0.00    -0.152 NA
ATOM     22  N6  <0> d          -3.067  -7.920  -6.489  0.00  0.00    -0.261 N 
ATOM     23  H1  <0> d          -3.142  -8.371  -5.634  0.00  0.00     0.190 HD
BRANCH  20  24
ATOM     24  C12 <0> d          -2.841  -7.717 -10.103  0.00  0.00     0.054 A 
ATOM     25  S1  <0> d          -2.700  -6.468 -11.371  0.00  0.00    -0.098 SA
ATOM     26  C15 <0> d          -2.669  -7.552 -12.790  0.00  0.00     0.050 A 
ATOM     27  C14 <0> d          -2.774  -8.777 -12.214  0.00  0.00     0.009 A 
ATOM     28  C13 <0> d          -2.862  -8.869 -10.842  0.00  0.00     0.023 A 
ENDBRANCH  20  24
ENDBRANCH  17  18
ENDBRANCH   3  17
TORSDOF 5
