REMARK  4 active torsions:
REMARK  status: ('A' for Active; 'I' for Inactive)
REMARK    1  A    between atoms: C6_8  and  C8_11 
REMARK    2  A    between atoms: C8_11  and  N4_12 
REMARK    3  A    between atoms: C14_21  and  C15_22 
REMARK    4  A    between atoms: C19_26  and  O1_28 
ROOT
ATOM      1  N4  <0> d           4.139  -2.214   1.332  0.00  0.00     0.108 N 
ATOM      2  C9  <0> d           4.038  -3.381   2.219  0.00  0.00     0.280 C 
ATOM      3  C10 <0> d           4.112  -2.922   3.683  0.00  0.00     0.089 C 
ATOM      4  C11 <0> d           5.294  -1.996   3.818  0.00  0.00     0.037 A 
ATOM      5  C12 <0> d           5.920  -1.427   2.763  0.00  0.00     0.071 A 
ATOM      6  N5  <0> d           6.916  -0.675   3.233  0.00  0.00    -0.352 N 
ATOM      7  C13 <0> d           6.933  -0.754   4.539  0.00  0.00     0.181 A 
ATOM      8  N6  <0> d           5.931  -1.572   4.940  0.00  0.00    -0.354 N 
ATOM      9  H1  <0> d           5.710  -1.809   5.854  0.00  0.00     0.166 HD
ATOM     10  C14 <0> d           5.499  -1.650   1.332  0.00  0.00     0.308 C 
ATOM     11  H23 <0> d           7.530  -0.153   2.693  0.00  0.00     0.166 HD
ENDROOT
BRANCH   1  12
ATOM     12  C8  <0> d           3.708  -2.551  -0.032  0.00  0.00     0.318 C 
BRANCH  12  13
ATOM     13  C6  <0> d           2.240  -2.889  -0.026  0.00  0.00     0.037 A 
ATOM     14  C5  <0> d           1.189  -1.981  -0.015  0.00  0.00     0.160 A 
ATOM     15  N1  <0> d           0.029  -2.713  -0.014  0.00  0.00    -0.220 N 
ATOM     16  N2  <0> d           1.149  -0.642  -0.012  0.00  0.00    -0.234 NA
ATOM     17  C4  <0> d          -1.177  -2.074  -0.004  0.00  0.00     0.036 A 
ATOM     18  N3  <0> d           0.383  -4.067  -0.023  0.00  0.00    -0.178 NA
ATOM     19  C3  <0> d          -1.205  -0.719   0.004  0.00  0.00     0.053 A 
ATOM     20  C21 <0> d          -2.460  -2.864  -0.002  0.00  0.00     0.070 C 
ATOM     21  C2  <0> d           0.002  -0.004   0.002  0.00  0.00     0.035 A 
ATOM     22  C1  <0> d          -0.018   1.503   0.010  0.00  0.00     0.070 C 
ATOM     23  C7  <0> d           1.693  -4.164  -0.030  0.00  0.00     0.152 A 
ENDBRANCH  12  13
ENDBRANCH   1  12
BRANCH  10  24
ATOM     24  C15 <0> d           5.506  -0.339   0.589  0.00  0.00    -0.017 A 
ATOM     25  C20 <0> d           6.561  -0.024  -0.245  0.00  0.00     0.046 A 
ATOM     26  C19 <0> d           6.564   1.181  -0.933  0.00  0.00     0.066 A 
ATOM     27  C18 <0> d           5.513   2.071  -0.772  0.00  0.00     0.036 A 
ATOM     28  C17 <0> d           4.463   1.754   0.068  0.00  0.00     0.003 A 
ATOM     29  C16 <0> d           4.459   0.550   0.748  0.00  0.00     0.010 A 
BRANCH  26  30
ATOM     30  O1  <0> d           7.598   1.491  -1.758  0.00  0.00    -0.361 OA
ATOM     31  H19 <0> d           8.322   1.961  -1.322  0.00  0.00     0.217 HD
ENDBRANCH  26  30
ENDBRANCH  10  24
TORSDOF 4
