REMARK  3 active torsions:
REMARK  status: ('A' for Active; 'I' for Inactive)
REMARK    1  A    between atoms: C5_5  and  N3_10 
REMARK    2  A    between atoms: N3_10  and  C8_11 
REMARK    3  A    between atoms: C11_14  and  C14_17 
REMARK       I    between atoms: C14_17  and  N4_19 
ROOT
ATOM      1  C8  <0> d           0.123  -5.641  -2.033  0.00  0.00     0.033 A 
ATOM      2  C9  <0> d           0.012  -5.413  -3.401  0.00  0.00     0.030 A 
ATOM      3  C10 <0> d           0.126  -6.461  -4.286  0.00  0.00     0.019 A 
ATOM      4  C11 <0> d           0.354  -7.755  -3.809  0.00  0.00     0.032 A 
ATOM      5  C12 <0> d           0.465  -7.980  -2.434  0.00  0.00     0.019 A 
ATOM      6  C13 <0> d           0.356  -6.927  -1.554  0.00  0.00     0.030 A 
ENDROOT
BRANCH   1   7
ATOM      7  N3  <0> d           0.007  -4.578  -1.140  0.00  0.00    -0.339 N 
ATOM      8  H9  <0> d           0.311  -3.694  -1.397  0.00  0.00     0.167 HD
BRANCH   7   9
ATOM      9  C5  <0> d          -0.540  -4.784   0.110  0.00  0.00     0.163 A 
ATOM     10  C4  <0> d          -0.567  -3.719   1.110  0.00  0.00     0.153 A 
ATOM     11  C3  <0> d          -1.176  -4.044   2.414  0.00  0.00     0.117 A 
ATOM     12  N5  <0> d          -0.179  -2.467   1.192  0.00  0.00    -0.167 NA
ATOM     13  C2  <0> d          -1.065  -2.881   3.142  0.00  0.00     0.057 A 
ATOM     14  N2  <0> d          -1.661  -5.284   2.596  0.00  0.00    -0.229 NA
ATOM     15  C1  <0> d          -1.534  -2.659   4.557  0.00  0.00     0.072 C 
ATOM     16  N6  <0> d          -0.463  -1.977   2.347  0.00  0.00    -0.276 N 
ATOM     17  C21 <0> d          -0.164  -0.601   2.749  0.00  0.00     0.179 C 
ATOM     18  C6  <0> d          -1.594  -6.175   1.641  0.00  0.00     0.125 A 
ATOM     19  N1  <0> d          -1.063  -5.955   0.448  0.00  0.00    -0.214 NA
ATOM     20  C7  <0> d          -2.159  -7.544   1.917  0.00  0.00     0.093 C 
ENDBRANCH   7   9
ENDBRANCH   1   7
BRANCH   4  21
ATOM     21  C14 <0> d           0.476  -8.881  -4.755  0.00  0.00     0.254 C 
ATOM     22  O1  <0> d          -0.102  -9.928  -4.532  0.00  0.00    -0.267 OA
ATOM     23  N4  <0> d           1.227  -8.749  -5.866  0.00  0.00    -0.343 N 
ATOM     24  C18 <0> d           1.859  -7.465  -6.205  0.00  0.00     0.157 C 
ATOM     25  C15 <0> d           1.433  -9.884  -6.780  0.00  0.00     0.157 C 
ATOM     26  C17 <0> d           3.346  -7.725  -6.494  0.00  0.00     0.136 C 
ATOM     27  O2  <0> d           3.459  -8.764  -7.469  0.00  0.00    -0.378 OA
ATOM     28  C19 <0> d           3.993  -6.447  -7.032  0.00  0.00     0.041 C 
ATOM     29  C16 <0> d           2.936 -10.025  -7.044  0.00  0.00     0.136 C 
ATOM     30  C20 <0> d           3.167 -11.070  -8.138  0.00  0.00     0.041 C 
ENDBRANCH   4  21
TORSDOF 3
