REMARK  6 active torsions:
REMARK  status: ('A' for Active; 'I' for Inactive)
REMARK    1  A    between atoms: C2_2  and  C3_3 
REMARK    2  A    between atoms: N1_8  and  C7_9 
REMARK    3  A    between atoms: C7_9  and  C8_10 
REMARK       I    between atoms: C8_10  and  N2_12 
REMARK    4  A    between atoms: N2_12  and  C10_14 
REMARK    5  A    between atoms: C10_14  and  C11_15 
REMARK    6  A    between atoms: C11_15  and  C12_16 
ROOT
ATOM      1  C8  <0> d          -2.379   1.933   2.720  0.00  0.00     0.247 C 
ATOM      2  O2  <0> d          -2.704   1.096   3.534  0.00  0.00    -0.271 OA
ATOM      3  N2  <0> d          -2.339   3.234   3.069  0.00  0.00    -0.355 N 
ATOM      4  C9  <0> d          -1.947   4.246   2.085  0.00  0.00     0.152 C 
ENDROOT
BRANCH   1   5
ATOM      5  C7  <0> d          -2.019   1.519   1.316  0.00  0.00     0.375 C 
BRANCH   5   6
ATOM      6  N1  <0> d          -2.140   0.061   1.190  0.00  0.00     0.106 N 
ATOM      7  C3  <0> d          -1.452  -0.423  -0.016  0.00  0.00     0.247 C 
ATOM      8  C4  <0> d          -1.552  -1.949  -0.078  0.00  0.00     0.204 C 
ATOM      9  O1  <0> d          -2.929  -2.333  -0.050  0.00  0.00    -0.382 OA
ATOM     10  C5  <0> d          -3.630  -1.881   1.112  0.00  0.00     0.145 C 
ATOM     11  C6  <0> d          -3.551  -0.353   1.185  0.00  0.00     0.305 C 
ATOM     12  C13 <0> d          -2.990  -2.487   2.362  0.00  0.00     0.041 C 
BRANCH   7  13
ATOM     13  C2  <0> d           0.020  -0.008   0.035  0.00  0.00     0.033 C 
ATOM     14  C1  <0> d           0.724  -0.467  -1.244  0.00  0.00     0.007 C 
ENDBRANCH   7  13
ENDBRANCH   5   6
ENDBRANCH   1   5
BRANCH   3  15
ATOM     15  C10 <0> d          -2.689   3.637   4.434  0.00  0.00     0.132 C 
BRANCH  15  16
ATOM     16  C11 <0> d          -1.432   3.628   5.306  0.00  0.00     0.089 C 
BRANCH  16  17
ATOM     17  C12 <0> d          -1.792   4.043   6.710  0.00  0.00     0.072 C 
ATOM     18  S1  <0> d          -3.306   4.405   7.073  0.00  0.00    -0.066 SA
ATOM     19  N3  <0> d          -0.837   4.107   7.659  0.00  0.00    -0.393 N 
ATOM     20  H21 <0> d           0.082   3.887   7.438  0.00  0.00     0.156 HD
ATOM     21  H22 <0> d          -1.069   4.374   8.562  0.00  0.00     0.156 HD
ENDBRANCH  16  17
ENDBRANCH  15  16
ENDBRANCH   3  15
TORSDOF 6
