REMARK  4 active torsions:
REMARK  status: ('A' for Active; 'I' for Inactive)
REMARK    1  A    between atoms: C9_9  and  C12_13 
REMARK       I    between atoms: C12_13  and  N2_15 
REMARK    2  A    between atoms: N2_15  and  C13_16 
REMARK    3  A    between atoms: C13_16  and  C15_18 
REMARK    4  A    between atoms: C15_18  and  N3_19 
ROOT
ATOM      1  C1  <0> d           0.110   1.544   0.212  0.00  0.00     0.048 C 
ATOM      2  C2  <0> d           0.162   0.039   0.149  0.00  0.00    -0.061 A 
ATOM      3  C3  <0> d           0.429  -0.591  -1.065  0.00  0.00     0.009 A 
ATOM      4  C4  <0> d           0.484  -1.948  -1.157  0.00  0.00     0.033 A 
ATOM      5  C5  <0> d           0.267  -2.734  -0.013  0.00  0.00     0.067 A 
ATOM      6  C6  <0> d          -0.005  -2.092   1.222  0.00  0.00    -0.006 A 
ATOM      7  C7  <0> d          -0.048  -0.689   1.281  0.00  0.00     0.020 A 
ATOM      8  C8  <0> d          -0.222  -2.876   2.368  0.00  0.00     0.033 A 
ATOM      9  C9  <0> d          -0.158  -4.258   2.233  0.00  0.00     0.057 A 
ATOM     10  C10 <0> d           0.117  -4.819   0.974  0.00  0.00     0.047 A 
ATOM     11  N1  <0> d           0.316  -4.070  -0.080  0.00  0.00    -0.252 NA
ATOM     12  C11 <0> d           0.185  -6.318   0.835  0.00  0.00     0.071 C 
ENDROOT
BRANCH   9  13
ATOM     13  C12 <0> d          -0.377  -5.131   3.405  0.00  0.00     0.254 C 
ATOM     14  O1  <0> d          -0.435  -6.337   3.263  0.00  0.00    -0.268 OA
ATOM     15  N2  <0> d          -0.514  -4.591   4.632  0.00  0.00    -0.351 N 
ATOM     16  H12 <0> d          -0.468  -3.628   4.746  0.00  0.00     0.163 HD
BRANCH  15  17
ATOM     17  C13 <0> d          -0.731  -5.456   5.794  0.00  0.00     0.099 C 
ATOM     18  C14 <0> d           0.618  -5.949   6.322  0.00  0.00     0.034 C 
BRANCH  17  19
ATOM     19  C15 <0> d          -1.450  -4.667   6.890  0.00  0.00     0.153 C 
BRANCH  19  20
ATOM     20  N3  <0> d          -2.790  -4.297   6.427  0.00  0.00    -0.348 N 
ATOM     21  C18 <0> d          -3.919  -5.021   6.579  0.00  0.00     0.209 A 
ATOM     22  N4  <0> d          -4.912  -4.368   6.040  0.00  0.00    -0.255 NA
ATOM     23  C17 <0> d          -4.454  -3.218   5.521  0.00  0.00     0.135 A 
ATOM     24  C16 <0> d          -3.129  -3.155   5.753  0.00  0.00     0.111 A 
ENDBRANCH  19  20
ENDBRANCH  17  19
ENDBRANCH  15  17
ENDBRANCH   9  13
TORSDOF 4
