REMARK  4 active torsions:
REMARK  status: ('A' for Active; 'I' for Inactive)
REMARK    1  A    between atoms: N1_6  and  C6_7 
REMARK    2  A    between atoms: C6_7  and  C7_8 
REMARK    3  A    between atoms: C6_7  and  C8_10 
REMARK    4  A    between atoms: C7_8  and  N2_9 
ROOT
ATOM      1  C6  <0> d          -0.165  -1.363   1.974  0.00  0.00     0.270 C 
ENDROOT
BRANCH   1   2
ATOM      2  N1  <0> d           0.711  -0.447   1.231  0.00  0.00    -0.055 N 
ATOM      3  C2  <0> d          -0.004   0.075   0.051  0.00  0.00     0.185 C 
ATOM      4  C1  <0> d          -0.104   1.599   0.136  0.00  0.00     0.040 C 
ATOM      5  C3  <0> d           0.808  -0.330  -1.196  0.00  0.00     0.034 C 
ATOM      6  C4  <0> d           2.232  -0.565  -0.625  0.00  0.00     0.030 C 
ATOM      7  C5  <0> d           1.915  -1.173   0.764  0.00  0.00     0.236 C 
ATOM      8  H18 <0> d           0.985   0.319   1.828  0.00  0.00     0.281 HD
ENDBRANCH   1   2
BRANCH   1   9
ATOM      9  C7  <0> d           0.601  -1.950   3.161  0.00  0.00     0.269 C 
BRANCH   9  10
ATOM     10  N2  <0> d          -0.229  -2.962   3.828  0.00  0.00    -0.077 N 
ATOM     11  H14 <0> d           0.254  -3.309   4.643  0.00  0.00     0.274 HD
ATOM     12  H15 <0> d          -1.105  -2.547   4.107  0.00  0.00     0.274 HD
ATOM     13  H19 <0> d          -0.405  -3.725   3.191  0.00  0.00     0.274 HD
ENDBRANCH   9  10
ENDBRANCH   1   9
BRANCH   1  14
ATOM     14  C8  <0> d          -1.369  -0.609   2.477  0.00  0.00     0.087 A 
ATOM     15  O1  <0> d          -1.363   0.636   2.981  0.00  0.00    -0.305 OA
ATOM     16  C11 <0> d          -2.613   0.987   3.324  0.00  0.00     0.121 A 
ATOM     17  C10 <0> d          -3.434  -0.043   3.048  0.00  0.00     0.048 A 
ATOM     18 Br1  <0> d          -3.130   2.645   4.074  0.00  0.00    -0.023 Br
ATOM     19  C9  <0> d          -2.632  -1.071   2.502  0.00  0.00     0.038 A 
ENDBRANCH   1  14
TORSDOF 4
