REMARK  9 active torsions:
REMARK  status: ('A' for Active; 'I' for Inactive)
REMARK    1  A    between atoms: C3_3  and  C4_4 
REMARK    2  A    between atoms: C4_4  and  C5_5 
REMARK    3  A    between atoms: C4_4  and  N2_19 
REMARK       I    between atoms: C5_5  and  N1_7 
REMARK    4  A    between atoms: N1_7  and  C6_8 
REMARK    5  A    between atoms: C6_8  and  S1_9 
REMARK    6  A    between atoms: S1_9  and  C7_12 
REMARK       I    between atoms: N2_19  and  C15_21 
REMARK    7  A    between atoms: C15_21  and  C16_23 
REMARK    8  A    between atoms: C17_24  and  O6_30 
REMARK    9  A    between atoms: C21_28  and  O5_29 
ROOT
ATOM      1  C4  <0> d           1.216   0.166  -1.880  0.00  0.00     0.202 C 
ENDROOT
BRANCH   1   2
ATOM      2  C3  <0> d           0.452  -0.446  -0.734  0.00  0.00     0.003 C 
ATOM      3  C2  <0> d           1.012  -1.368   0.009  0.00  0.00    -0.033 C 
ATOM      4  C1  <0> d           2.460  -1.728  -0.203  0.00  0.00     0.036 C 
ENDBRANCH   1   2
BRANCH   1   5
ATOM      5  C5  <0> d           0.523  -0.161  -3.177  0.00  0.00     0.245 C 
ATOM      6  O1  <0> d           0.115   0.732  -3.889  0.00  0.00    -0.271 OA
ATOM      7  N1  <0> d           0.356  -1.447  -3.546  0.00  0.00    -0.345 N 
ATOM      8  H7  <0> d           0.682  -2.161  -2.977  0.00  0.00     0.163 HD
BRANCH   7   9
ATOM      9  C6  <0> d          -0.317  -1.765  -4.808  0.00  0.00     0.268 C 
BRANCH   9  10
ATOM     10  S1  <0> d           0.921  -2.004  -6.112  0.00  0.00     0.192 S 
ATOM     11  O2  <0> d           0.287  -2.376  -7.327  0.00  0.00    -0.221 OA
ATOM     12  O3  <0> d           1.871  -0.947  -6.083  0.00  0.00    -0.221 OA
BRANCH  10  13
ATOM     13  C7  <0> d           1.826  -3.434  -5.621  0.00  0.00     0.060 A 
ATOM     14  C12 <0> d           1.413  -4.688  -6.031  0.00  0.00     0.024 A 
ATOM     15  C11 <0> d           2.125  -5.809  -5.650  0.00  0.00     0.008 A 
ATOM     16  C10 <0> d           3.245  -5.678  -4.850  0.00  0.00    -0.062 A 
ATOM     17  C9  <0> d           3.655  -4.425  -4.435  0.00  0.00     0.008 A 
ATOM     18  C13 <0> d           4.019  -6.901  -4.431  0.00  0.00     0.048 C 
ATOM     19  C8  <0> d           2.945  -3.303  -4.820  0.00  0.00     0.024 A 
ENDBRANCH  10  13
ENDBRANCH   9  10
ENDBRANCH   7   9
ENDBRANCH   1   5
BRANCH   1  20
ATOM     20  N2  <0> d           1.270   1.620  -1.709  0.00  0.00    -0.335 N 
ATOM     21  C14 <0> d           0.033   2.384  -1.527  0.00  0.00     0.154 C 
ATOM     22  C15 <0> d           2.459   2.256  -1.719  0.00  0.00     0.260 C 
ATOM     23  O4  <0> d           3.486   1.622  -1.870  0.00  0.00    -0.267 OA
BRANCH  22  24
ATOM     24  C16 <0> d           2.514   3.717  -1.548  0.00  0.00     0.098 A 
ATOM     25  C21 <0> d           2.453   4.562  -2.665  0.00  0.00     0.084 A 
ATOM     26  C20 <0> d           2.500   5.936  -2.492  0.00  0.00     0.038 A 
ATOM     27  C19 <0> d           2.619   6.474  -1.224  0.00  0.00     0.005 A 
ATOM     28  C18 <0> d           2.685   5.650  -0.116  0.00  0.00     0.038 A 
ATOM     29  C17 <0> d           2.634   4.274  -0.266  0.00  0.00     0.084 A 
BRANCH  25  30
ATOM     30  O5  <0> d           2.343   4.037  -3.911  0.00  0.00    -0.360 OA
ATOM     31  H23 <0> d           1.430   3.909  -4.205  0.00  0.00     0.217 HD
ENDBRANCH  25  30
BRANCH  29  32
ATOM     32  O6  <0> d           2.699   3.467   0.823  0.00  0.00    -0.360 OA
ATOM     33  H24 <0> d           3.598   3.208   1.068  0.00  0.00     0.217 HD
ENDBRANCH  29  32
ENDBRANCH  22  24
ENDBRANCH   1  20
TORSDOF 9
