REMARK  6 active torsions:
REMARK  status: ('A' for Active; 'I' for Inactive)
REMARK    1  A    between atoms: C2_2  and  C3_3 
REMARK    2  A    between atoms: C3_3  and  C4_4 
REMARK    3  A    between atoms: C3_3  and  N2_8 
REMARK    4  A    between atoms: C4_4  and  C5_5 
REMARK    5  A    between atoms: N2_8  and  S2_9 
REMARK    6  A    between atoms: S2_9  and  C6_12 
ROOT
ATOM      1  S2  <0> d          -3.033   1.237   1.401  0.00  0.00     0.262 S 
ATOM      2  O1  <0> d          -3.530   1.359   2.727  0.00  0.00    -0.200 OA
ATOM      3  O2  <0> d          -2.352   2.297   0.743  0.00  0.00    -0.200 OA
ENDROOT
BRANCH   1   4
ATOM      4  N2  <0> d          -2.005  -0.061   1.399  0.00  0.00    -0.310 N 
ATOM      5  H11 <0> d          -1.878  -0.581   2.207  0.00  0.00     0.172 HD
BRANCH   4   6
ATOM      6  C3  <0> d          -1.286  -0.423   0.174  0.00  0.00     0.099 C 
BRANCH   6   7
ATOM      7  C2  <0> d           0.088   0.249   0.172  0.00  0.00     0.021 C 
ATOM      8  C1  <0> d          -0.087   1.768   0.132  0.00  0.00     0.007 C 
ENDBRANCH   6   7
BRANCH   6   9
ATOM      9  C4  <0> d          -1.112  -1.942   0.116  0.00  0.00     0.094 C 
BRANCH   9  10
ATOM     10  C5  <0> d          -2.463  -2.599  -0.005  0.00  0.00     0.073 C 
ATOM     11  S1  <0> d          -3.786  -1.702  -0.053  0.00  0.00    -0.066 SA
ATOM     12  N1  <0> d          -2.555  -3.942  -0.073  0.00  0.00    -0.393 N 
ATOM     13  H9  <0> d          -1.753  -4.485  -0.044  0.00  0.00     0.156 HD
ATOM     14  H10 <0> d          -3.425  -4.364  -0.151  0.00  0.00     0.156 HD
ENDBRANCH   9  10
ENDBRANCH   6   9
ENDBRANCH   4   6
ENDBRANCH   1   4
BRANCH   1  15
ATOM     15  C6  <0> d          -4.409   0.815   0.384  0.00  0.00     0.122 A 
ATOM     16  C11 <0> d          -5.516   0.197   0.939  0.00  0.00     0.060 A 
ATOM     17  C10 <0> d          -6.597  -0.130   0.142  0.00  0.00     0.044 A 
ATOM     18 Cl1  <0> d          -5.549  -0.161   2.638  0.00  0.00    -0.083 Cl
ATOM     19  C9  <0> d          -6.568   0.150  -1.213  0.00  0.00     0.014 A 
ATOM     20  C8  <0> d          -5.459   0.762  -1.768  0.00  0.00     0.044 A 
ATOM     21 Br1  <0> d          -8.044  -0.304  -2.304  0.00  0.00    -0.051 Br
ATOM     22  C7  <0> d          -4.380   1.094  -0.970  0.00  0.00     0.060 A 
ATOM     23 Cl2  <0> d          -2.988   1.863  -1.668  0.00  0.00    -0.083 Cl
ENDBRANCH   1  15
TORSDOF 6
