REMARK  3 active torsions:
REMARK  status: ('A' for Active; 'I' for Inactive)
REMARK    1  A    between atoms: N1_9  and  N3_13 
REMARK    2  A    between atoms: C8_10  and  S1_12 
REMARK       I    between atoms: N3_13  and  C9_14 
REMARK    3  A    between atoms: C9_14  and  C10_16 
ROOT
ATOM      1  C1  <0> d          -0.017   1.375   0.010  0.00  0.00     0.001 A 
ATOM      2  C2  <0> d           1.168   2.095   0.002  0.00  0.00     0.002 A 
ATOM      3  C3  <0> d           2.386   1.443  -0.018  0.00  0.00     0.030 A 
ATOM      4  C4  <0> d           2.422   0.059  -0.028  0.00  0.00     0.046 A 
ATOM      5  C5  <0> d           1.223  -0.675  -0.012  0.00  0.00     0.060 A 
ATOM      6  C6  <0> d           0.002  -0.004   0.002  0.00  0.00     0.019 A 
ATOM      7  C7  <0> d           1.296  -2.146   0.004  0.00  0.00     0.277 C 
ATOM      8  O1  <0> d           0.289  -2.812  -0.145  0.00  0.00    -0.266 OA
ATOM      9  N1  <0> d           2.489  -2.748   0.187  0.00  0.00    -0.221 N 
ATOM     10  C8  <0> d           3.679  -1.977   0.544  0.00  0.00     0.271 C 
ATOM     11  N2  <0> d           3.623  -0.642  -0.062  0.00  0.00    -0.358 N 
ATOM     12  H7  <0> d           4.408  -0.255  -0.480  0.00  0.00     0.162 HD
ENDROOT
BRANCH   9  13
ATOM     13  N3  <0> d           2.589  -4.137   0.031  0.00  0.00    -0.260 N 
ATOM     14  C9  <0> d           2.581  -4.679  -1.203  0.00  0.00     0.268 C 
ATOM     15  O2  <0> d           2.486  -3.965  -2.179  0.00  0.00    -0.269 OA
ATOM     16  H9  <0> d           2.665  -4.708   0.811  0.00  0.00     0.190 HD
BRANCH  14  17
ATOM     17  C10 <0> d           2.689  -6.173  -1.370  0.00  0.00     0.265 A 
ATOM     18  N5  <0> d           3.045  -6.517  -2.757  0.00  0.00    -0.173 NA
ATOM     19  N4  <0> d           2.119  -7.193  -3.223  0.00  0.00    -0.166 NA
ATOM     20  C12 <0> d           1.099  -7.415  -2.367  0.00  0.00     0.157 A 
ATOM     21  C11 <0> d           1.335  -6.833  -1.187  0.00  0.00     0.039 A 
ATOM     22  I1  <0> d           0.119  -6.834   0.519  0.00  0.00    -0.045 I 
ENDBRANCH  14  17
ENDBRANCH   9  13
BRANCH  10  23
ATOM     23  S1  <0> d           3.766  -1.808   2.349  0.00  0.00    -0.134 SA
ATOM     24  H8  <0> d           4.885  -1.092   2.555  0.00  0.00     0.105 HD
ENDBRANCH  10  23
TORSDOF 3
