REMARK  5 active torsions:
REMARK  status: ('A' for Active; 'I' for Inactive)
REMARK    1  A    between atoms: C5_5  and  C18_23 
REMARK    2  A    between atoms: C7_7  and  C8_8 
REMARK    3  A    between atoms: C8_8  and  C9_10 
REMARK    4  A    between atoms: C9_10  and  C10_11 
REMARK    5  A    between atoms: C10_11  and  O3_22 
ROOT
ATOM      1  C10 <0> d           0.719  -0.006  -0.517  0.00  0.00     0.174 A 
ATOM      2  C11 <0> d           1.299   1.384  -0.652  0.00  0.00     0.014 A 
ATOM      3  C12 <0> d           2.589   1.865  -0.645  0.00  0.00     0.032 A 
ATOM      4  C13 <0> d           2.820   3.222  -0.794  0.00  0.00     0.011 A 
ATOM      5  C14 <0> d           1.753   4.089  -0.950  0.00  0.00     0.021 A 
ATOM      6  C15 <0> d           0.460   3.608  -0.958  0.00  0.00     0.031 A 
ATOM      7  C16 <0> d           0.219   2.244  -0.808  0.00  0.00     0.044 A 
ATOM      8  N1  <0> d          -0.977   1.526  -0.783  0.00  0.00    -0.324 N 
ATOM      9  C17 <0> d          -0.776   0.208  -0.617  0.00  0.00     0.262 A 
ATOM     10  O2  <0> d          -1.632  -0.650  -0.558  0.00  0.00    -0.269 OA
ATOM     11 Br1  <0> d           4.590   3.889  -0.784  0.00  0.00    -0.051 Br
ATOM     12  H12 <0> d          -1.853   1.931  -0.879  0.00  0.00     0.169 HD
ENDROOT
BRANCH   1  13
ATOM     13  C9  <0> d           1.209  -0.907  -1.652  0.00  0.00     0.137 C 
BRANCH  13  14
ATOM     14  C8  <0> d           0.455  -2.211  -1.620  0.00  0.00     0.163 C 
ATOM     15  O1  <0> d          -0.391  -2.401  -0.773  0.00  0.00    -0.292 OA
BRANCH  14  16
ATOM     16  C7  <0> d           0.745  -3.254  -2.617  0.00  0.00     0.016 A 
ATOM     17  C2  <0> d           0.144  -4.512  -2.513  0.00  0.00    -0.048 A 
ATOM     18  C1  <0> d          -0.804  -4.805  -1.379  0.00  0.00     0.049 C 
ATOM     19  C3  <0> d           0.417  -5.482  -3.454  0.00  0.00     0.008 A 
ATOM     20  C4  <0> d           1.292  -5.217  -4.493  0.00  0.00     0.008 A 
ATOM     21  C5  <0> d           1.895  -3.976  -4.600  0.00  0.00    -0.054 A 
ATOM     22  C6  <0> d           1.628  -2.993  -3.670  0.00  0.00     0.023 A 
BRANCH  21  23
ATOM     23  C18 <0> d           2.846  -3.697  -5.736  0.00  0.00     0.010 C 
ATOM     24  C19 <0> d           4.020  -4.676  -5.669  0.00  0.00     0.015 C 
ATOM     25  C20 <0> d           2.113  -3.869  -7.068  0.00  0.00     0.015 C 
ENDBRANCH  21  23
ENDBRANCH  14  16
ENDBRANCH  13  14
ENDBRANCH   1  13
BRANCH   1  26
ATOM     26  O3  <0> d           1.061  -0.569   0.751  0.00  0.00    -0.375 OA
ATOM     27  H13 <0> d           0.665  -1.436   0.915  0.00  0.00     0.211 HD
ENDBRANCH   1  26
TORSDOF 5
