REMARK  3 active torsions:
REMARK  status: ('A' for Active; 'I' for Inactive)
REMARK    1  A    between atoms: C6_7  and  C10_13 
REMARK    2  A    between atoms: C12_15  and  N4_23 
REMARK    3  A    between atoms: C15_18  and  N3_19 
REMARK       I    between atoms: N3_19  and  C16_20 
ROOT
ATOM      1  C1  <0> d           0.020   1.495  -0.018  0.00  0.00     0.048 C 
ATOM      2  C2  <0> d           0.032  -0.012  -0.021  0.00  0.00    -0.060 A 
ATOM      3  C3  <0> d           0.025  -0.682  -1.255  0.00  0.00     0.009 A 
ATOM      4  C4  <0> d           0.035  -2.031  -1.330  0.00  0.00     0.032 A 
ATOM      5  C5  <0> d           0.054  -2.812  -0.082  0.00  0.00     0.056 A 
ATOM      6  N1  <0> d           0.064  -4.113  -0.113  0.00  0.00    -0.371 N 
ATOM      7  C6  <0> d           0.082  -4.845   1.163  0.00  0.00     0.210 A 
ATOM      8  C7  <0> d           0.088  -4.039   2.442  0.00  0.00     0.249 A 
ATOM      9  O1  <0> d           0.103  -4.596   3.521  0.00  0.00    -0.270 OA
ATOM     10  N2  <0> d           0.077  -2.706   2.369  0.00  0.00    -0.323 N 
ATOM     11  C8  <0> d           0.060  -2.075   1.207  0.00  0.00     0.061 A 
ATOM     12  C9  <0> d           0.053  -0.663   1.166  0.00  0.00     0.038 A 
ATOM     13  H15 <0> d           0.059  -4.590  -0.958  0.00  0.00     0.161 HD
ATOM     14  H16 <0> d           0.081  -2.188   3.189  0.00  0.00     0.169 HD
ENDROOT
BRANCH   7  15
ATOM     15  C10 <0> d           1.304  -5.726   1.170  0.00  0.00     0.003 A 
ATOM     16  C15 <0> d           1.330  -6.873   1.953  0.00  0.00     0.043 A 
ATOM     17  C14 <0> d           2.457  -7.685   1.953  0.00  0.00     0.032 A 
ATOM     18  C13 <0> d           3.552  -7.343   1.183  0.00  0.00     0.038 A 
ATOM     19  C12 <0> d           3.525  -6.197   0.409  0.00  0.00     0.103 A 
ATOM     20  C11 <0> d           2.403  -5.390   0.403  0.00  0.00     0.048 A 
BRANCH  16  21
ATOM     21  N3  <0> d           0.221  -7.213   2.735  0.00  0.00    -0.327 N 
ATOM     22  C16 <0> d           0.379  -7.984   3.829  0.00  0.00     0.218 C 
ATOM     23  O2  <0> d           1.492  -8.301   4.192  0.00  0.00    -0.274 OA
ATOM     24  C17 <0> d          -0.827  -8.454   4.600  0.00  0.00     0.117 C 
ATOM     25  H11 <0> d          -0.661  -6.894   2.490  0.00  0.00     0.169 HD
ENDBRANCH  16  21
BRANCH  19  26
ATOM     26  N4  <0> d           4.700  -5.835  -0.414  0.00  0.00    -0.116 N 
ATOM     27  O3  <0> d           4.678  -4.833  -1.091  0.00  0.00    -0.532 OA
ATOM     28  O4  <0> d           5.683  -6.540  -0.410  0.00  0.00    -0.532 OA
ENDBRANCH  19  26
ENDBRANCH   7  15
TORSDOF 3
