REMARK  5 active torsions:
REMARK  status: ('A' for Active; 'I' for Inactive)
REMARK    1  A    between atoms: C3_4  and  N2_6 
REMARK       I    between atoms: N2_6  and  C4_7 
REMARK    2  A    between atoms: C4_7  and  C5_9 
REMARK    3  A    between atoms: C5_9  and  C6_10 
REMARK    4  A    between atoms: C6_10  and  C7_11 
REMARK    5  A    between atoms: C7_11  and  N3_12 
ROOT
ATOM      1  C7  <0> d          -0.658  -6.590  -0.027  0.00  0.00     0.135 C 
ENDROOT
BRANCH   1   2
ATOM      2  C6  <0> d          -0.873  -5.076  -0.017  0.00  0.00     0.029 C 
BRANCH   2   3
ATOM      3  C5  <0> d           0.483  -4.368  -0.026  0.00  0.00     0.105 C 
BRANCH   3   4
ATOM      4  C4  <0> d           0.272  -2.876  -0.016  0.00  0.00     0.223 C 
ATOM      5  N2  <0> d           1.333  -2.045  -0.022  0.00  0.00    -0.306 N 
ATOM      6  H5  <0> d           2.232  -2.407  -0.032  0.00  0.00     0.171 HD
ATOM      7  O1  <0> d          -0.854  -2.423  -0.003  0.00  0.00    -0.273 OA
BRANCH   5   8
ATOM      8  C3  <0> d           1.137  -0.669  -0.012  0.00  0.00     0.172 A 
ATOM      9  S1  <0> d           2.296   0.552  -0.017  0.00  0.00    -0.062 SA
ATOM     10  C2  <0> d           1.183   1.948   0.001  0.00  0.00     0.072 A 
ATOM     11  C1  <0> d          -0.016   1.316   0.009  0.00  0.00     0.126 A 
ATOM     12  N1  <0> d           0.002  -0.004   0.002  0.00  0.00    -0.236 NA
ENDBRANCH   5   8
ENDBRANCH   3   4
ENDBRANCH   2   3
ENDBRANCH   1   2
BRANCH   1  13
ATOM     13  N3  <0> d          -1.957  -7.268  -0.018  0.00  0.00    -0.288 N 
ATOM     14  C15 <0> d          -2.622  -7.603  -1.147  0.00  0.00     0.231 C 
ATOM     15  C14 <0> d          -3.989  -8.049  -0.715  0.00  0.00     0.095 C 
ATOM     16  O3  <0> d          -2.198  -7.556  -2.281  0.00  0.00    -0.273 OA
ATOM     17  C9  <0> d          -3.752  -8.548   0.720  0.00  0.00     0.095 C 
ATOM     18  C13 <0> d          -4.686  -9.023  -1.618  0.00  0.00     0.041 C 
ATOM     19  C8  <0> d          -2.601  -7.609   1.115  0.00  0.00     0.231 C 
ATOM     20  C10 <0> d          -3.136  -9.950   0.733  0.00  0.00     0.041 C 
ATOM     21  O2  <0> d          -2.324  -7.243   2.237  0.00  0.00    -0.273 OA
ATOM     22  C11 <0> d          -3.695 -10.851  -0.313  0.00  0.00    -0.030 C 
ATOM     23  C12 <0> d          -4.353 -10.457  -1.352  0.00  0.00    -0.030 C 
ENDBRANCH   1  13
TORSDOF 5
