REMARK  6 active torsions:
REMARK  status: ('A' for Active; 'I' for Inactive)
REMARK    1  A    between atoms: C2_2  and  C3_3 
REMARK    2  A    between atoms: C2_2  and  N2_19 
REMARK    3  A    between atoms: C3_3  and  C4_4 
REMARK    4  A    between atoms: C3_3  and  N1_10 
REMARK    5  A    between atoms: N1_10  and  C9_12 
REMARK    6  A    between atoms: C9_12  and  C10_13 
ROOT
ATOM      1  C3  <0> d           0.749  -0.516   1.301  0.00  0.00     0.259 C 
ENDROOT
BRANCH   1   2
ATOM      2  C2  <0> d           0.078   0.049   0.048  0.00  0.00     0.249 C 
ATOM      3  C1  <0> d           0.703  -0.585  -1.196  0.00  0.00     0.045 C 
BRANCH   2   4
ATOM      4  N2  <0> d           0.269   1.505   0.004  0.00  0.00     0.085 N 
ATOM      5  H22 <0> d          -0.177   1.904  -0.808  0.00  0.00     0.313 HD
ATOM      6  H23 <0> d          -0.066   1.940   0.851  0.00  0.00     0.313 HD
ENDBRANCH   2   4
ENDBRANCH   1   2
BRANCH   1   7
ATOM      7  C4  <0> d           2.199  -0.105   1.323  0.00  0.00     0.017 A 
ATOM      8  S1  <0> d           3.582  -0.813   0.443  0.00  0.00    -0.103 SA
ATOM      9  C7  <0> d           4.855   0.277   1.056  0.00  0.00     0.069 A 
ATOM     10  C6  <0> d           4.154   1.091   1.883  0.00  0.00     0.018 A 
ATOM     11  C5  <0> d           2.792   0.895   2.020  0.00  0.00     0.036 A 
ATOM     12 Br1  <0> d           5.025   2.473   2.835  0.00  0.00    -0.051 Br
ENDBRANCH   1   7
BRANCH   1  13
ATOM     13  N1  <0> d           0.656  -1.982   1.287  0.00  0.00    -0.062 N 
ATOM     14  C8  <0> d          -0.757  -2.382   1.242  0.00  0.00     0.270 C 
ATOM     15  H24 <0> d           1.134  -2.342   0.474  0.00  0.00     0.280 HD
BRANCH  13  16
ATOM     16  C9  <0> d           1.280  -2.524   2.502  0.00  0.00     0.267 C 
BRANCH  16  17
ATOM     17  C10 <0> d           1.295  -4.052   2.430  0.00  0.00     0.147 C 
ATOM     18  O1  <0> d           2.137  -4.470   1.354  0.00  0.00    -0.384 OA
ATOM     19  C14 <0> d           2.202  -5.887   1.181  0.00  0.00     0.168 C 
ATOM     20  C13 <0> d           2.775  -6.529   2.447  0.00  0.00     0.026 C 
ATOM     21  C12 <0> d           1.899  -6.147   3.644  0.00  0.00     0.004 C 
ATOM     22  C11 <0> d           1.831  -4.620   3.746  0.00  0.00     0.034 C 
ENDBRANCH  16  17
ENDBRANCH  13  16
ENDBRANCH   1  13
TORSDOF 6
