REMARK  7 active torsions:
REMARK  status: ('A' for Active; 'I' for Inactive)
REMARK    1  A    between atoms: C2_2  and  C4_4 
REMARK    2  A    between atoms: C5_6  and  C7_9 
REMARK    3  A    between atoms: C7_9  and  S2_10 
REMARK    4  A    between atoms: S2_10  and  C8_13 
REMARK    5  A    between atoms: C8_13  and  C9_14 
REMARK    6  A    between atoms: C9_14  and  C10_15 
REMARK    7  A    between atoms: C9_14  and  O5_26 
ROOT
ATOM      1  C9  <0> d          -4.474  -6.670  -2.388  0.00  0.00     0.165 C 
ENDROOT
BRANCH   1   2
ATOM      2  C8  <0> d          -4.584  -5.161  -2.615  0.00  0.00     0.177 C 
BRANCH   2   3
ATOM      3  S2  <0> d          -3.700  -4.285  -1.296  0.00  0.00     0.152 S 
ATOM      4  O1  <0> d          -2.316  -4.586  -1.405  0.00  0.00    -0.227 OA
ATOM      5  O2  <0> d          -4.367  -4.534  -0.066  0.00  0.00    -0.227 OA
BRANCH   3   6
ATOM      6  C7  <0> d          -3.944  -2.542  -1.738  0.00  0.00     0.199 C 
BRANCH   6   7
ATOM      7  C5  <0> d          -3.259  -1.665  -0.722  0.00  0.00     0.056 A 
ATOM      8  N1  <0> d          -2.004  -1.288  -0.872  0.00  0.00    -0.249 NA
ATOM      9  C4  <0> d          -1.412  -0.526   0.013  0.00  0.00     0.078 A 
ATOM     10  S1  <0> d          -2.610  -0.276   1.168  0.00  0.00    -0.084 SA
ATOM     11  C6  <0> d          -3.904  -1.227   0.389  0.00  0.00     0.079 A 
BRANCH   9  12
ATOM     12  C2  <0> d           0.002  -0.004   0.002  0.00  0.00     0.037 C 
ATOM     13  C1  <0> d          -0.019   1.526   0.010  0.00  0.00     0.016 C 
ATOM     14  C3  <0> d           0.742  -0.511   1.242  0.00  0.00     0.016 C 
ENDBRANCH   9  12
ENDBRANCH   6   7
ENDBRANCH   3   6
ENDBRANCH   2   3
ENDBRANCH   1   2
BRANCH   1  15
ATOM     15  C10 <0> d          -5.102  -7.399  -3.547  0.00  0.00    -0.026 A 
ATOM     16  C15 <0> d          -4.302  -7.924  -4.547  0.00  0.00     0.049 A 
ATOM     17  C14 <0> d          -4.883  -8.597  -5.608  0.00  0.00     0.102 A 
ATOM     18  C13 <0> d          -6.262  -8.736  -5.673  0.00  0.00     0.102 A 
ATOM     19  O3  <0> d          -4.105  -9.123  -6.599  0.00  0.00    -0.348 OA
ATOM     20  C12 <0> d          -7.060  -8.206  -4.673  0.00  0.00     0.040 A 
ATOM     21  O4  <0> d          -6.825  -9.396  -6.726  0.00  0.00    -0.348 OA
ATOM     22  C11 <0> d          -6.476  -7.537  -3.612  0.00  0.00     0.012 A 
ATOM     23  C18 <0> d          -6.575 -10.802  -6.788  0.00  0.00     0.178 C 
ATOM     24  C17 <0> d          -5.244 -11.084  -7.466  0.00  0.00     0.053 C 
ATOM     25  C16 <0> d          -4.064 -10.549  -6.670  0.00  0.00     0.178 C 
ENDBRANCH   1  15
BRANCH   1  26
ATOM     26  O5  <0> d          -5.154  -7.020  -1.180  0.00  0.00    -0.390 OA
ATOM     27  H23 <0> d          -6.095  -6.799  -1.180  0.00  0.00     0.210 HD
ENDBRANCH   1  26
TORSDOF 7
