REMARK  4 active torsions:
REMARK  status: ('A' for Active; 'I' for Inactive)
REMARK    1  A    between atoms: C3_3  and  C12_16 
REMARK    2  A    between atoms: C4_4  and  C6_9 
REMARK       I    between atoms: C12_16  and  N3_18 
REMARK    3  A    between atoms: N3_18  and  C13_19 
REMARK    4  A    between atoms: C18_24  and  O3_25 
ROOT
ATOM      1  C1  <0> d          -2.462   0.723   1.672  0.00  0.00     0.069 C 
ATOM      2  C2  <0> d          -1.303   1.298   0.899  0.00  0.00     0.024 A 
ATOM      3  C3  <0> d          -1.477   2.431   0.187  0.00  0.00     0.059 A 
ATOM      4  C4  <0> d          -0.288   2.972  -0.581  0.00  0.00     0.160 A 
ATOM      5  N1  <0> d           0.971   2.214  -0.482  0.00  0.00    -0.330 N 
ATOM      6  C5  <0> d           0.991   1.100   0.276  0.00  0.00     0.321 A 
ATOM      7  O1  <0> d           2.026   0.468   0.365  0.00  0.00    -0.247 OA
ATOM      8  N2  <0> d          -0.091   0.667   0.935  0.00  0.00    -0.312 N 
ATOM      9  H5  <0> d           1.767   2.510  -0.951  0.00  0.00     0.165 HD
ATOM     10  H6  <0> d          -0.012  -0.143   1.463  0.00  0.00     0.170 HD
ENDROOT
BRANCH   3  11
ATOM     11  C12 <0> d          -2.731   3.090   0.154  0.00  0.00     0.256 C 
ATOM     12  O2  <0> d          -3.409   3.058  -0.857  0.00  0.00    -0.267 OA
ATOM     13  N3  <0> d          -3.173   3.752   1.242  0.00  0.00    -0.321 N 
ATOM     14  H11 <0> d          -2.594   3.860   2.012  0.00  0.00     0.169 HD
BRANCH  13  15
ATOM     15  C13 <0> d          -4.469   4.283   1.259  0.00  0.00     0.068 A 
ATOM     16  C18 <0> d          -5.164   4.390   2.462  0.00  0.00     0.095 A 
ATOM     17  C17 <0> d          -6.443   4.921   2.474  0.00  0.00     0.039 A 
ATOM     18  C16 <0> d          -7.032   5.334   1.293  0.00  0.00     0.003 A 
ATOM     19  C15 <0> d          -6.345   5.222   0.098  0.00  0.00     0.002 A 
ATOM     20  C14 <0> d          -5.066   4.698   0.078  0.00  0.00     0.032 A 
BRANCH  16  21
ATOM     21  O3  <0> d          -4.586   3.978   3.622  0.00  0.00    -0.354 OA
ATOM     22  C19 <0> d          -5.357   4.118   4.816  0.00  0.00     0.210 C 
ENDBRANCH  16  21
ENDBRANCH  13  15
ENDBRANCH   3  11
BRANCH   4  23
ATOM     23  C6  <0> d          -0.024   4.376  -0.101  0.00  0.00    -0.031 A 
ATOM     24  C11 <0> d          -0.489   5.454  -0.830  0.00  0.00     0.011 A 
ATOM     25  C10 <0> d          -0.248   6.742  -0.390  0.00  0.00     0.019 A 
ATOM     26  C9  <0> d           0.459   6.952   0.781  0.00  0.00     0.011 A 
ATOM     27  C8  <0> d           0.924   5.872   1.510  0.00  0.00     0.019 A 
ATOM     28 Br1  <0> d           0.788   8.713   1.384  0.00  0.00    -0.051 Br
ATOM     29  C7  <0> d           0.677   4.585   1.072  0.00  0.00     0.011 A 
ENDBRANCH   4  23
TORSDOF 4
