REMARK  3 active torsions:
REMARK  status: ('A' for Active; 'I' for Inactive)
REMARK    1  A    between atoms: C3_3  and  C7_11 
REMARK    2  A    between atoms: C7_11  and  C8_12 
REMARK       I    between atoms: C8_12  and  N3_14 
REMARK    3  A    between atoms: N3_14  and  C9_15 
ROOT
ATOM      1  C8  <0> d          -3.000   0.156  -1.397  0.00  0.00     0.222 C 
ATOM      2  O2  <0> d          -2.350  -0.285  -2.321  0.00  0.00    -0.273 OA
ATOM      3  N3  <0> d          -4.176   0.770  -1.633  0.00  0.00    -0.352 N 
ATOM      4  H11 <0> d          -4.696   1.123  -0.893  0.00  0.00     0.163 HD
ENDROOT
BRANCH   1   5
ATOM      5  C7  <0> d          -2.492   0.017   0.015  0.00  0.00     0.149 C 
BRANCH   5   6
ATOM      6  C3  <0> d          -1.167  -0.702   0.004  0.00  0.00     0.043 A 
ATOM      7  C2  <0> d           0.002  -0.004   0.002  0.00  0.00     0.044 A 
ATOM      8  C1  <0> d          -0.018   1.503   0.010  0.00  0.00     0.071 C 
ATOM      9  N2  <0> d           1.167  -0.657  -0.013  0.00  0.00    -0.240 NA
ATOM     10  C5  <0> d           1.218  -1.962  -0.015  0.00  0.00     0.103 A 
ATOM     11  N1  <0> d           0.097  -2.710  -0.014  0.00  0.00    -0.311 N 
ATOM     12  C6  <0> d           2.560  -2.647  -0.026  0.00  0.00     0.091 C 
ATOM     13  C4  <0> d          -1.113  -2.111  -0.005  0.00  0.00     0.255 A 
ATOM     14  H1  <0> d           0.160  -3.678  -0.020  0.00  0.00     0.170 HD
ATOM     15  O1  <0> d          -2.136  -2.774  -0.004  0.00  0.00    -0.268 OA
ENDBRANCH   5   6
ENDBRANCH   1   5
BRANCH   3  16
ATOM     16  C9  <0> d          -4.670   0.905  -3.005  0.00  0.00     0.119 C 
ATOM     17  C13 <0> d          -4.020   2.103  -3.632  0.00  0.00    -0.019 A 
ATOM     18  C12 <0> d          -4.635   2.956  -4.528  0.00  0.00     0.008 A 
ATOM     19  C14 <0> d          -2.696   2.351  -3.276  0.00  0.00     0.010 A 
ATOM     20  S1  <0> d          -6.316   2.736  -5.022  0.00  0.00    -0.129 SA
ATOM     21  C17 <0> d          -3.931   4.032  -5.067  0.00  0.00     0.019 A 
ATOM     22  C11 <0> d          -6.718   1.074  -4.408  0.00  0.00     0.082 C 
ATOM     23  C10 <0> d          -6.186   0.983  -2.970  0.00  0.00     0.040 C 
ATOM     24  C16 <0> d          -2.627   4.266  -4.708  0.00  0.00     0.001 A 
ATOM     25  C15 <0> d          -2.007   3.420  -3.807  0.00  0.00     0.001 A 
ENDBRANCH   3  16
TORSDOF 3
