REMARK  6 active torsions:
REMARK  status: ('A' for Active; 'I' for Inactive)
REMARK    1  A    between atoms: C2_2  and  C3_3 
REMARK    2  A    between atoms: C3_3  and  O1_4 
REMARK    3  A    between atoms: O1_4  and  C4_5 
REMARK    4  A    between atoms: C7_8  and  C10_11 
REMARK    5  A    between atoms: C12_13  and  O4_30 
REMARK    6  A    between atoms: N2_15  and  C16_22 
ROOT
ATOM      1  C10 <0> d           3.240  -4.426  -5.648  0.00  0.00     0.121 C 
ATOM      2  C11 <0> d           2.223  -5.245  -6.379  0.00  0.00     0.060 A 
ATOM      3  C12 <0> d           0.841  -4.947  -6.324  0.00  0.00     0.193 A 
ATOM      4  N1  <0> d           0.196  -5.821  -7.047  0.00  0.00    -0.144 NA
ATOM      5  N2  <0> d           1.127  -6.706  -7.591  0.00  0.00    -0.246 N 
ATOM      6  C13 <0> d           2.379  -6.330  -7.167  0.00  0.00     0.139 A 
ATOM      7  N3  <0> d           3.498  -7.025  -7.559  0.00  0.00    -0.311 N 
ATOM      8  C14 <0> d           4.768  -6.945  -7.294  0.00  0.00     0.232 C 
ATOM      9  O2  <0> d           5.445  -7.832  -7.770  0.00  0.00    -0.272 OA
ATOM     10  C15 <0> d           5.519  -5.944  -6.507  0.00  0.00     0.178 C 
ATOM     11  S1  <0> d           4.626  -5.393  -5.045  0.00  0.00    -0.145 SA
ATOM     12  H14 <0> d           3.292  -7.744  -8.177  0.00  0.00     0.170 HD
ENDROOT
BRANCH   1  13
ATOM     13  C7  <0> d           2.571  -3.757  -4.475  0.00  0.00    -0.040 A 
ATOM     14  C6  <0> d           2.522  -2.377  -4.403  0.00  0.00     0.011 A 
ATOM     15  C5  <0> d           1.909  -1.762  -3.329  0.00  0.00     0.037 A 
ATOM     16  C4  <0> d           1.341  -2.529  -2.322  0.00  0.00     0.068 A 
ATOM     17  C9  <0> d           1.397  -3.914  -2.394  0.00  0.00     0.037 A 
ATOM     18  C8  <0> d           2.006  -4.524  -3.473  0.00  0.00     0.011 A 
BRANCH  16  19
ATOM     19  O1  <0> d           0.738  -1.926  -1.265  0.00  0.00    -0.351 OA
BRANCH  19  20
ATOM     20  C3  <0> d           0.718  -0.497  -1.257  0.00  0.00     0.175 C 
BRANCH  20  21
ATOM     21  C2  <0> d           0.002  -0.004   0.002  0.00  0.00     0.022 C 
ATOM     22  C1  <0> d          -0.019   1.526   0.010  0.00  0.00     0.007 C 
ENDBRANCH  20  21
ENDBRANCH  19  20
ENDBRANCH  16  19
ENDBRANCH   1  13
BRANCH   3  23
ATOM     23  O4  <0> d           0.278  -3.921  -5.631  0.00  0.00    -0.343 OA
ATOM     24  H29 <0> d           0.199  -3.101  -6.138  0.00  0.00     0.219 HD
ENDBRANCH   3  23
BRANCH   5  25
ATOM     25  C16 <0> d           0.821  -7.841  -8.465  0.00  0.00     0.117 C 
ATOM     26  C20 <0> d          -0.110  -8.814  -7.734  0.00  0.00     0.064 C 
ATOM     27  C19 <0> d          -0.488  -9.955  -8.682  0.00  0.00     0.055 C 
ATOM     28  O3  <0> d          -1.102  -9.417  -9.855  0.00  0.00    -0.381 OA
ATOM     29  C21 <0> d          -1.467 -10.898  -7.981  0.00  0.00     0.045 C 
ATOM     30  C22 <0> d           0.773 -10.729  -9.075  0.00  0.00     0.045 C 
ATOM     31  C18 <0> d          -0.259  -8.538 -10.604  0.00  0.00     0.171 C 
ATOM     32  C17 <0> d           0.126  -7.339  -9.734  0.00  0.00     0.054 C 
ENDBRANCH   5  25
TORSDOF 6
