REMARK  6 active torsions:
REMARK  status: ('A' for Active; 'I' for Inactive)
REMARK    1  A    between atoms: N2_10  and  C9_11 
REMARK    2  A    between atoms: C9_11  and  C10_12 
REMARK    3  A    between atoms: C10_12  and  C11_13 
REMARK    4  A    between atoms: C11_13  and  N3_14 
REMARK    5  A    between atoms: N3_14  and  S1_15 
REMARK    6  A    between atoms: S1_15  and  C12_18 
ROOT
ATOM      1  N3  <0> d          -2.780   0.432   4.930  0.00  0.00    -0.315 N 
ATOM      2  H14 <0> d          -3.514   0.438   4.296  0.00  0.00     0.172 HD
ENDROOT
BRANCH   1   3
ATOM      3  C11 <0> d          -1.401   0.297   4.453  0.00  0.00     0.134 C 
BRANCH   3   4
ATOM      4  C10 <0> d          -1.409  -0.186   3.001  0.00  0.00     0.041 C 
BRANCH   4   5
ATOM      5  C9  <0> d           0.031  -0.327   2.503  0.00  0.00     0.132 C 
BRANCH   5   6
ATOM      6  N2  <0> d           0.023  -0.789   1.113  0.00  0.00    -0.333 N 
ATOM      7  C2  <0> d           0.002  -0.004   0.002  0.00  0.00     0.103 A 
ATOM      8  C1  <0> d          -0.018   1.503   0.010  0.00  0.00     0.091 C 
ATOM      9  N1  <0> d           0.008  -0.744  -1.069  0.00  0.00    -0.234 NA
ATOM     10  C3  <0> d           0.027  -2.055  -0.717  0.00  0.00     0.085 A 
ATOM     11  C8  <0> d           0.033  -2.103   0.687  0.00  0.00     0.064 A 
ATOM     12  C4  <0> d           0.040  -3.248  -1.446  0.00  0.00     0.034 A 
ATOM     13  C7  <0> d           0.052  -3.329   1.337  0.00  0.00     0.032 A 
ATOM     14  C6  <0> d           0.064  -4.493   0.598  0.00  0.00     0.002 A 
ATOM     15  C5  <0> d           0.058  -4.446  -0.789  0.00  0.00     0.002 A 
ENDBRANCH   5   6
ENDBRANCH   4   5
ENDBRANCH   3   4
ENDBRANCH   1   3
BRANCH   1  16
ATOM     16  S1  <0> d          -3.085   0.575   6.551  0.00  0.00     0.265 S 
ATOM     17  O1  <0> d          -4.492   0.714   6.689  0.00  0.00    -0.200 OA
ATOM     18  O2  <0> d          -2.355  -0.461   7.194  0.00  0.00    -0.200 OA
BRANCH  16  19
ATOM     19  C12 <0> d          -2.374   2.096   7.083  0.00  0.00     0.163 A 
ATOM     20  C15 <0> d          -2.996   3.328   6.766  0.00  0.00     0.276 A 
ATOM     21  N5  <0> d          -2.436   4.480   7.189  0.00  0.00    -0.269 N 
ATOM     22  O4  <0> d          -4.029   3.347   6.122  0.00  0.00    -0.266 OA
ATOM     23  C14 <0> d          -1.291   4.458   7.896  0.00  0.00     0.330 A 
ATOM     24  C16 <0> d          -3.074   5.760   6.873  0.00  0.00     0.164 C 
ATOM     25  N4  <0> d          -0.687   3.294   8.199  0.00  0.00    -0.312 N 
ATOM     26  O3  <0> d          -0.795   5.505   8.267  0.00  0.00    -0.246 OA
ATOM     27  C13 <0> d          -1.226   2.104   7.794  0.00  0.00     0.126 A 
ATOM     28  C17 <0> d           0.558   3.302   8.970  0.00  0.00     0.160 C 
ENDBRANCH  16  19
ENDBRANCH   1  16
TORSDOF 6
