REMARK  8 active torsions:
REMARK  status: ('A' for Active; 'I' for Inactive)
REMARK    1  A    between atoms: C4_4  and  C7_7 
REMARK    2  A    between atoms: C7_7  and  C8_8 
REMARK    3  A    between atoms: C7_7  and  C17_18 
REMARK    4  A    between atoms: C8_8  and  N2_29 
REMARK    5  A    between atoms: C9_9  and  C10_10 
REMARK    6  A    between atoms: C9_9  and  N2_29 
REMARK    7  A    between atoms: C10_10  and  C11_11 
REMARK    8  A    between atoms: C10_10  and  O1_17 
ROOT
ATOM      1  C7  <0> d           3.672   2.182  -0.024  0.00  0.00     0.079 C 
ENDROOT
BRANCH   1   2
ATOM      2  C4  <0> d           2.377   1.411  -0.015  0.00  0.00    -0.048 A 
ATOM      3  C3  <0> d           1.171   2.086   0.002  0.00  0.00     0.008 A 
ATOM      4  C2  <0> d          -0.017   1.378   0.010  0.00  0.00     0.001 A 
ATOM      5  C1  <0> d           0.002  -0.004   0.002  0.00  0.00     0.000 A 
ATOM      6  C6  <0> d           1.208  -0.679  -0.013  0.00  0.00     0.001 A 
ATOM      7  C5  <0> d           2.396   0.029  -0.022  0.00  0.00     0.008 A 
ENDBRANCH   1   2
BRANCH   1   8
ATOM      8  C8  <0> d           3.753   3.057   1.228  0.00  0.00     0.246 C 
BRANCH   8   9
ATOM      9  N2  <0> d           3.820   2.190   2.420  0.00  0.00    -0.071 N 
ATOM     10  H24 <0> d           4.652   1.591   2.358  0.00  0.00     0.277 HD
ATOM     11  H25 <0> d           2.978   1.603   2.459  0.00  0.00     0.277 HD
BRANCH   9  12
ATOM     12  C9  <0> d           3.899   3.008   3.645  0.00  0.00     0.268 C 
BRANCH  12  13
ATOM     13  C10 <0> d           3.966   2.083   4.862  0.00  0.00     0.176 C 
BRANCH  13  14
ATOM     14  C11 <0> d           3.924   2.908   6.122  0.00  0.00    -0.028 A 
ATOM     15  C16 <0> d           2.740   3.039   6.823  0.00  0.00     0.010 A 
ATOM     16  C15 <0> d           2.701   3.796   7.979  0.00  0.00     0.001 A 
ATOM     17  C14 <0> d           3.847   4.420   8.435  0.00  0.00     0.000 A 
ATOM     18  C13 <0> d           5.031   4.289   7.735  0.00  0.00     0.001 A 
ATOM     19  C12 <0> d           5.071   3.529   6.581  0.00  0.00     0.010 A 
ENDBRANCH  13  14
BRANCH  13  20
ATOM     20  O1  <0> d           5.182   1.333   4.824  0.00  0.00    -0.389 OA
ATOM     21  H18 <0> d           5.981   1.879   4.835  0.00  0.00     0.210 HD
ENDBRANCH  13  20
ENDBRANCH  12  13
ENDBRANCH   9  12
ENDBRANCH   8   9
ENDBRANCH   1   8
BRANCH   1  22
ATOM     22  C17 <0> d           3.728   3.055  -1.251  0.00  0.00    -0.020 A 
ATOM     23  C20 <0> d           4.739   3.006  -2.310  0.00  0.00    -0.001 A 
ATOM     24  C19 <0> d           4.377   4.000  -3.239  0.00  0.00     0.042 A 
ATOM     25  C21 <0> d           5.875   2.226  -2.532  0.00  0.00     0.014 A 
ATOM     26  N1  <0> d           3.236   4.604  -2.763  0.00  0.00    -0.365 N 
ATOM     27  C24 <0> d           5.161   4.191  -4.372  0.00  0.00     0.030 A 
ATOM     28  C18 <0> d           2.864   4.029  -1.578  0.00  0.00     0.097 A 
ATOM     29  H3  <0> d           2.765   5.331  -3.201  0.00  0.00     0.165 HD
ATOM     30  C23 <0> d           6.282   3.414  -4.568  0.00  0.00     0.002 A 
ATOM     31  C22 <0> d           6.633   2.433  -3.650  0.00  0.00     0.001 A 
ENDBRANCH   1  22
TORSDOF 8
