REMARK  7 active torsions:
REMARK  status: ('A' for Active; 'I' for Inactive)
REMARK    1  A    between atoms: C2_2  and  N1_3 
REMARK    2  A    between atoms: N1_3  and  C3_4 
REMARK       I    between atoms: N1_3  and  C5_7 
REMARK    3  A    between atoms: C3_4  and  C4_5 
REMARK    4  A    between atoms: C4_5  and  O1_6 
REMARK    5  A    between atoms: C5_7  and  C6_9 
REMARK    6  A    between atoms: C6_9  and  C7_10 
REMARK    7  A    between atoms: C7_10  and  C8_11 
ROOT
ATOM      1  C7  <0> d          -2.049  -0.805  -3.744  0.00  0.00     0.055 C 
ENDROOT
BRANCH   1   2
ATOM      2  C6  <0> d          -1.502  -0.473  -2.354  0.00  0.00     0.108 C 
BRANCH   2   3
ATOM      3  C5  <0> d          -0.013  -0.705  -2.332  0.00  0.00     0.220 C 
ATOM      4  N1  <0> d           0.688  -0.476  -1.203  0.00  0.00    -0.350 N 
ATOM      5  O2  <0> d           0.555  -1.096  -3.330  0.00  0.00    -0.273 OA
BRANCH   4   6
ATOM      6  C2  <0> d           0.002  -0.004   0.002  0.00  0.00     0.121 C 
ATOM      7  C1  <0> d          -0.019   1.526   0.010  0.00  0.00     0.026 C 
ENDBRANCH   4   6
BRANCH   4   8
ATOM      8  C3  <0> d           2.135  -0.701  -1.182  0.00  0.00     0.151 C 
BRANCH   8   9
ATOM      9  C4  <0> d           2.421  -2.145  -0.763  0.00  0.00     0.183 C 
BRANCH   9  10
ATOM     10  O1  <0> d           1.915  -3.038  -1.757  0.00  0.00    -0.399 OA
ATOM     11  H11 <0> d           2.061  -3.973  -1.557  0.00  0.00     0.209 HD
ENDBRANCH   9  10
ENDBRANCH   8   9
ENDBRANCH   4   8
ENDBRANCH   2   3
ENDBRANCH   1   2
BRANCH   1  12
ATOM     12  C8  <0> d          -3.538  -0.574  -3.765  0.00  0.00     0.035 A 
ATOM     13  C11 <0> d          -4.429  -1.576  -3.330  0.00  0.00     0.255 A 
ATOM     14  N3  <0> d          -5.755  -1.321  -3.362  0.00  0.00    -0.311 N 
ATOM     15  O3  <0> d          -4.011  -2.649  -2.928  0.00  0.00    -0.268 OA
ATOM     16  C10 <0> d          -6.199  -0.133  -3.815  0.00  0.00     0.103 A 
ATOM     17  H1  <0> d          -6.386  -1.994  -3.064  0.00  0.00     0.170 HD
ATOM     18  N2  <0> d          -5.374   0.794  -4.223  0.00  0.00    -0.240 NA
ATOM     19  C12 <0> d          -7.682   0.134  -3.851  0.00  0.00     0.091 C 
ATOM     20  C9  <0> d          -4.052   0.606  -4.211  0.00  0.00     0.044 A 
ATOM     21  C13 <0> d          -3.131   1.699  -4.689  0.00  0.00     0.071 C 
ENDBRANCH   1  12
TORSDOF 7
