REMARK  5 active torsions:
REMARK  status: ('A' for Active; 'I' for Inactive)
REMARK    1  A    between atoms: C6_6  and  O1_7 
REMARK    2  A    between atoms: O1_7  and  C7_8 
REMARK    3  A    between atoms: C7_8  and  C8_9 
REMARK       I    between atoms: C8_9  and  N1_11 
REMARK    4  A    between atoms: N1_11  and  C9_12 
REMARK    5  A    between atoms: C9_12  and  C10_13 
REMARK       I    between atoms: C10_13  and  N2_15 
ROOT
ATOM      1  C10 <0> d          -3.857  -6.144   0.007  0.00  0.00     0.237 C 
ATOM      2  O3  <0> d          -2.768  -6.679  -0.006  0.00  0.00    -0.272 OA
ATOM      3  N2  <0> d          -4.976  -6.894   0.015  0.00  0.00    -0.351 N 
ATOM      4  C11 <0> d          -6.302  -6.261   0.025  0.00  0.00     0.129 C 
ATOM      5  C12 <0> d          -7.125  -6.820  -1.140  0.00  0.00     0.068 C 
ATOM      6  C13 <0> d          -7.155  -8.347  -1.052  0.00  0.00     0.204 C 
ATOM      7  C14 <0> d          -5.732  -8.899  -1.153  0.00  0.00     0.068 C 
ATOM      8  C15 <0> d          -4.895  -8.361   0.006  0.00  0.00     0.129 C 
ATOM      9  C16 <0> d          -7.994  -8.902  -2.174  0.00  0.00     0.072 A 
ATOM     10  C17 <0> d          -8.900  -9.892  -2.001  0.00  0.00     0.037 A 
ATOM     11  N3  <0> d          -9.466 -10.133  -3.212  0.00  0.00    -0.354 N 
ATOM     12  H1  <0> d         -10.154 -10.789  -3.408  0.00  0.00     0.166 HD
ATOM     13  C18 <0> d          -8.889  -9.284  -4.095  0.00  0.00     0.181 A 
ATOM     14  N4  <0> d          -8.009  -8.552  -3.461  0.00  0.00    -0.352 N 
ATOM     15  C19 <0> d          -9.166 -10.553  -0.673  0.00  0.00     0.089 C 
ATOM     16  C20 <0> d          -8.004 -10.204   0.267  0.00  0.00     0.277 C 
ATOM     17  N5  <0> d          -7.754  -8.756   0.227  0.00  0.00     0.099 N 
ATOM     18  H24 <0> d          -7.180  -8.466   1.005  0.00  0.00     0.317 HD
ATOM     19  H25 <0> d          -7.455  -7.865  -3.863  0.00  0.00     0.166 HD
ENDROOT
BRANCH   1  20
ATOM     20  C9  <0> d          -3.957  -4.640   0.017  0.00  0.00     0.225 C 
BRANCH  20  21
ATOM     21  N1  <0> d          -2.611  -4.061   0.006  0.00  0.00    -0.350 N 
ATOM     22  C8  <0> d          -2.454  -2.722   0.012  0.00  0.00     0.242 C 
ATOM     23  O2  <0> d          -3.426  -1.997   0.025  0.00  0.00    -0.271 OA
ATOM     24  H8  <0> d          -1.834  -4.641  -0.005  0.00  0.00     0.163 HD
BRANCH  22  25
ATOM     25  C7  <0> d          -1.070  -2.126   0.001  0.00  0.00     0.278 C 
BRANCH  25  26
ATOM     26  O1  <0> d          -1.165  -0.701   0.010  0.00  0.00    -0.342 OA
BRANCH  26  27
ATOM     27  C6  <0> d           0.002  -0.004   0.002  0.00  0.00     0.069 A 
ATOM     28  C1  <0> d          -0.017   1.383   0.010  0.00  0.00     0.038 A 
ATOM     29  C2  <0> d           1.171   2.089   0.002  0.00  0.00     0.026 A 
ATOM     30  C3  <0> d           2.378   1.414  -0.013  0.00  0.00     0.034 A 
ATOM     31  C4  <0> d           2.399   0.030  -0.021  0.00  0.00     0.026 A 
ATOM     32 Cl1  <0> d           3.869   2.303  -0.024  0.00  0.00    -0.084 Cl
ATOM     33  C5  <0> d           1.214  -0.679  -0.014  0.00  0.00     0.038 A 
ENDBRANCH  26  27
ENDBRANCH  25  26
ENDBRANCH  22  25
ENDBRANCH  20  21
ENDBRANCH   1  20
TORSDOF 5
