REMARK  2 active torsions:
REMARK  status: ('A' for Active; 'I' for Inactive)
REMARK    1  A    between atoms: C9_10  and  C10_13 
REMARK    2  A    between atoms: C10_13  and  N3_15 
ROOT
ATOM      1  C1  <0> d          -0.018   1.503   0.010  0.00  0.00     0.049 C 
ATOM      2  C2  <0> d           0.002  -0.004   0.002  0.00  0.00    -0.054 A 
ATOM      3  C3  <0> d           0.006  -0.682  -1.199  0.00  0.00     0.039 A 
ATOM      4  C4  <0> d           0.024  -2.070  -1.204  0.00  0.00     0.063 A 
ATOM      5  C5  <0> d           0.040  -2.774   0.012  0.00  0.00     0.086 A 
ATOM      6  C6  <0> d           0.035  -2.066   1.216  0.00  0.00     0.041 A 
ATOM      7  C7  <0> d           0.023  -0.699   1.202  0.00  0.00    -0.054 A 
ATOM      8  C8  <0> d           0.025   0.060   2.504  0.00  0.00     0.049 C 
ATOM      9  N1  <0> d           0.056  -4.096  -0.297  0.00  0.00    -0.231 NA
ATOM     10  C9  <0> d           0.051  -4.244  -1.589  0.00  0.00     0.138 A 
ATOM     11  N2  <0> d           0.032  -3.028  -2.199  0.00  0.00    -0.341 N 
ATOM     12  H1  <0> d           0.025  -2.864  -3.155  0.00  0.00     0.167 HD
ENDROOT
BRANCH  10  13
ATOM     13  C10 <0> d           0.066  -5.569  -2.307  0.00  0.00     0.288 C 
ATOM     14  C11 <0> d           1.506  -5.938  -2.667  0.00  0.00     0.051 C 
BRANCH  13  15
ATOM     15  N3  <0> d          -0.501  -6.605  -1.434  0.00  0.00     0.103 N 
ATOM     16  C15 <0> d          -0.503  -7.914  -2.102  0.00  0.00     0.300 C 
ATOM     17  C14 <0> d          -1.045  -8.973  -1.140  0.00  0.00     0.262 C 
ATOM     18  N4  <0> d          -2.409  -8.612  -0.731  0.00  0.00    -0.072 N 
ATOM     19  C13 <0> d          -2.387  -7.314  -0.043  0.00  0.00     0.262 C 
ATOM     20  H18 <0> d          -2.770  -9.317  -0.106  0.00  0.00     0.277 HD
ATOM     21  H23 <0> d          -3.000  -8.550  -1.546  0.00  0.00     0.277 HD
ATOM     22  C12 <0> d          -1.856  -6.240  -0.996  0.00  0.00     0.300 C 
ENDBRANCH  13  15
ENDBRANCH  10  13
TORSDOF 2
