REMARK  7 active torsions:
REMARK  status: ('A' for Active; 'I' for Inactive)
REMARK    1  A    between atoms: O1_2  and  C2_3 
REMARK    2  A    between atoms: C5_6  and  C8_9 
REMARK    3  A    between atoms: C8_9  and  C9_10 
REMARK    4  A    between atoms: C8_9  and  C18_23 
REMARK    5  A    between atoms: C9_10  and  N1_11 
REMARK       I    between atoms: N1_11  and  C10_12 
REMARK    6  A    between atoms: C10_12  and  C11_14 
REMARK    7  A    between atoms: C14_17  and  S1_20 
ROOT
ATOM      1  C8  <0> d          -4.981  -2.629   0.035  0.00  0.00     0.071 C 
ENDROOT
BRANCH   1   2
ATOM      2  C5  <0> d          -3.648  -1.927   0.026  0.00  0.00    -0.048 A 
ATOM      3  C4  <0> d          -3.596  -0.545   0.027  0.00  0.00     0.011 A 
ATOM      4  C3  <0> d          -2.375   0.101   0.019  0.00  0.00     0.037 A 
ATOM      5  C2  <0> d          -1.200  -0.637   0.010  0.00  0.00     0.068 A 
ATOM      6  C7  <0> d          -1.255  -2.024   0.003  0.00  0.00     0.037 A 
ATOM      7  C6  <0> d          -2.479  -2.665   0.017  0.00  0.00     0.011 A 
BRANCH   5   8
ATOM      8  O1  <0> d           0.002  -0.004   0.002  0.00  0.00    -0.356 OA
ATOM      9  C1  <0> d          -0.017   1.425   0.010  0.00  0.00     0.210 C 
ENDBRANCH   5   8
ENDBRANCH   1   2
BRANCH   1  10
ATOM     10  C9  <0> d          -5.105  -3.504  -1.214  0.00  0.00     0.137 C 
BRANCH  10  11
ATOM     11  N1  <0> d          -6.446  -4.093  -1.267  0.00  0.00    -0.356 N 
ATOM     12  C10 <0> d          -6.785  -4.905  -2.287  0.00  0.00     0.251 C 
ATOM     13  O2  <0> d          -5.979  -5.149  -3.164  0.00  0.00    -0.268 OA
ATOM     14  H12 <0> d          -7.089  -3.898  -0.568  0.00  0.00     0.162 HD
BRANCH  12  15
ATOM     15  C11 <0> d          -8.138  -5.499  -2.340  0.00  0.00     0.032 A 
ATOM     16  C16 <0> d          -8.493  -6.341  -3.396  0.00  0.00     0.018 A 
ATOM     17  C15 <0> d          -9.755  -6.897  -3.436  0.00  0.00     0.022 A 
ATOM     18  C14 <0> d         -10.672  -6.612  -2.440  0.00  0.00     0.031 A 
ATOM     19  C13 <0> d         -10.328  -5.774  -1.394  0.00  0.00     0.022 A 
ATOM     20  C12 <0> d          -9.068  -5.216  -1.339  0.00  0.00     0.018 A 
BRANCH  18  21
ATOM     21  S1  <0> d         -12.284  -7.321  -2.503  0.00  0.00     0.045 S 
ATOM     22  O3  <0> d         -12.711  -7.324  -1.148  0.00  0.00    -0.253 OA
ATOM     23  C17 <0> d         -13.258  -6.112  -3.442  0.00  0.00     0.133 C 
ENDBRANCH  18  21
ENDBRANCH  12  15
ENDBRANCH  10  11
ENDBRANCH   1  10
BRANCH   1  24
ATOM     24  C18 <0> d          -5.085  -3.493   1.265  0.00  0.00    -0.020 A 
ATOM     25  C21 <0> d          -6.092  -3.384   2.324  0.00  0.00    -0.001 A 
ATOM     26  C20 <0> d          -5.790  -4.396   3.253  0.00  0.00     0.042 A 
ATOM     27  C22 <0> d          -7.182  -2.540   2.543  0.00  0.00     0.014 A 
ATOM     28  N2  <0> d          -4.676  -5.057   2.786  0.00  0.00    -0.365 N 
ATOM     29  C25 <0> d          -6.588  -4.545   4.383  0.00  0.00     0.030 A 
ATOM     30  C19 <0> d          -4.271  -4.505   1.602  0.00  0.00     0.097 A 
ATOM     31  H2  <0> d          -4.243  -5.802   3.231  0.00  0.00     0.165 HD
ATOM     32  C24 <0> d          -7.654  -3.695   4.584  0.00  0.00     0.002 A 
ATOM     33  C23 <0> d          -7.950  -2.700   3.662  0.00  0.00     0.001 A 
ENDBRANCH   1  24
TORSDOF 7
