REMARK  2 active torsions:
REMARK  status: ('A' for Active; 'I' for Inactive)
REMARK    1  A    between atoms: C7_7  and  C10_11 
REMARK    2  A    between atoms: C19_28  and  C21_30 
ROOT
ATOM      1  C10 <0> d           3.776  -0.635  -0.036  0.00  0.00     0.100 C 
ATOM      2  C11 <0> d           4.525  -0.222  -1.269  0.00  0.00     0.067 A 
ATOM      3  C12 <0> d           5.529   0.696  -1.202  0.00  0.00     0.122 A 
ATOM      4  N2  <0> d           6.193   1.060  -2.349  0.00  0.00    -0.294 N 
ATOM      5  H2  <0> d           6.930   1.735  -2.304  0.00  0.00     0.172 HD
ATOM      6  C13 <0> d           5.858   0.512  -3.531  0.00  0.00     0.328 A 
ATOM      7  O1  <0> d           6.454   0.846  -4.537  0.00  0.00    -0.247 OA
ATOM      8  N3  <0> d           4.872  -0.400  -3.617  0.00  0.00    -0.275 N 
ATOM      9  H3  <0> d           4.639  -0.797  -4.505  0.00  0.00     0.173 HD
ATOM     10  C14 <0> d           4.196  -0.783  -2.516  0.00  0.00     0.260 A 
ATOM     11  O2  <0> d           3.304  -1.611  -2.601  0.00  0.00    -0.267 OA
ATOM     12  N4  <0> d           5.874   1.253   0.003  0.00  0.00    -0.345 N 
ATOM     13  C15 <0> d           5.530   0.642   1.179  0.00  0.00     0.022 C 
ATOM     14  C16 <0> d           4.534  -0.268   1.214  0.00  0.00     0.024 C 
ATOM     15  C17 <0> d           4.172  -0.899   2.417  0.00  0.00     0.159 C 
ATOM     16  O3  <0> d           3.281  -1.726   2.413  0.00  0.00    -0.293 OA
ATOM     17  C18 <0> d           4.867  -0.571   3.711  0.00  0.00     0.094 C 
ATOM     18  C19 <0> d           5.380   0.872   3.648  0.00  0.00     0.038 C 
ATOM     19  C20 <0> d           6.294   1.007   2.428  0.00  0.00     0.068 C 
ATOM     20  H11 <0> d           6.367   2.088   0.023  0.00  0.00     0.167 HD
ENDROOT
BRANCH   1  21
ATOM     21  C7  <0> d           2.435   0.052  -0.020  0.00  0.00    -0.031 A 
ATOM     22  C5  <0> d           1.241  -0.692  -0.013  0.00  0.00    -0.000 A 
ATOM     23  C4  <0> d           0.002  -0.004   0.002  0.00  0.00     0.067 A 
ATOM     24  C6  <0> d           1.254  -2.097  -0.022  0.00  0.00     0.014 A 
ATOM     25  C3  <0> d          -1.192  -0.746   0.009  0.00  0.00     0.032 A 
ATOM     26  N1  <0> d          -0.016   1.332   0.009  0.00  0.00    -0.260 NA
ATOM     27  C2  <0> d          -1.142  -2.106   0.001  0.00  0.00     0.002 A 
ATOM     28  C1  <0> d           0.077  -2.781  -0.015  0.00  0.00     0.001 A 
ATOM     29  C9  <0> d           1.095   2.029   0.003  0.00  0.00     0.118 A 
ATOM     30  C8  <0> d           2.345   1.415  -0.012  0.00  0.00     0.028 A 
ENDBRANCH   1  21
BRANCH  18  31
ATOM     31  C21 <0> d           6.156   1.188   4.900  0.00  0.00    -0.013 A 
ATOM     32  S1  <0> d           7.605   0.380   5.559  0.00  0.00    -0.106 SA
ATOM     33  C24 <0> d           7.819   1.393   7.013  0.00  0.00     0.050 A 
ATOM     34  C23 <0> d           6.784   2.261   6.905  0.00  0.00     0.008 A 
ATOM     35  C22 <0> d           5.932   2.156   5.822  0.00  0.00     0.015 A 
ENDBRANCH  18  31
TORSDOF 2
