REMARK  5 active torsions:
REMARK  status: ('A' for Active; 'I' for Inactive)
REMARK    1  A    between atoms: C4_4  and  C8_9 
REMARK       I    between atoms: C8_9  and  N1_11 
REMARK    2  A    between atoms: C10_13  and  C17_21 
REMARK       I    between atoms: C17_21  and  N3_23 
REMARK    3  A    between atoms: N3_23  and  C18_24 
REMARK    4  A    between atoms: C18_24  and  C19_25 
REMARK    5  A    between atoms: C19_25  and  N4_26 
ROOT
ATOM      1  C8  <0> d           0.028  -2.817  -2.481  0.00  0.00     0.253 C 
ATOM      2  O1  <0> d          -0.094  -2.212  -3.529  0.00  0.00    -0.267 OA
ATOM      3  N1  <0> d           0.149  -4.159  -2.488  0.00  0.00    -0.346 N 
ATOM      4  C9  <0> d           0.178  -5.074  -1.323  0.00  0.00     0.141 C 
ATOM      5  C10 <0> d          -0.643  -6.303  -1.771  0.00  0.00     0.106 C 
ATOM      6  C11 <0> d          -0.569  -6.286  -3.307  0.00  0.00    -0.007 C 
ATOM      7  C12 <0> d           0.276  -5.054  -3.663  0.00  0.00     0.136 C 
ATOM      8  C13 <0> d           0.104  -7.556  -3.818  0.00  0.00     0.039 C 
ATOM      9  C14 <0> d           0.113  -7.542  -5.349  0.00  0.00     0.233 C 
ATOM     10  N2  <0> d          -1.265  -7.460  -5.848  0.00  0.00    -0.075 N 
ATOM     11  C15 <0> d          -1.874  -6.192  -5.429  0.00  0.00     0.233 C 
ATOM     12  C16 <0> d          -1.968  -6.149  -3.901  0.00  0.00     0.039 C 
ATOM     13  H16 <0> d          -1.260  -7.512  -6.856  0.00  0.00     0.277 HD
ATOM     14  H33 <0> d          -1.802  -8.229  -5.477  0.00  0.00     0.277 HD
ENDROOT
BRANCH   5  15
ATOM     15  C17 <0> d          -0.031  -7.569  -1.228  0.00  0.00     0.224 C 
ATOM     16  O2  <0> d           1.149  -7.603  -0.953  0.00  0.00    -0.273 OA
ATOM     17  N3  <0> d          -0.796  -8.664  -1.048  0.00  0.00    -0.359 N 
ATOM     18  H21 <0> d          -1.741  -8.637  -1.268  0.00  0.00     0.162 HD
BRANCH  17  19
ATOM     19  C18 <0> d          -0.202  -9.895  -0.521  0.00  0.00     0.144 C 
BRANCH  19  20
ATOM     20  C19 <0> d          -1.278 -10.977  -0.415  0.00  0.00     0.170 C 
BRANCH  20  21
ATOM     21  N4  <0> d          -0.683 -12.207   0.113  0.00  0.00    -0.273 N 
ATOM     22  N5  <0> d          -0.584 -12.561   1.465  0.00  0.00    -0.177 NA
ATOM     23  C22 <0> d           0.001 -13.729   1.540  0.00  0.00     0.053 A 
ATOM     24  C21 <0> d           0.302 -14.151   0.241  0.00  0.00     0.055 A 
ATOM     25  C23 <0> d           0.305 -14.485   2.807  0.00  0.00     0.072 C 
ATOM     26  C20 <0> d          -0.129 -13.198  -0.617  0.00  0.00     0.028 A 
ATOM     27  C24 <0> d          -0.012 -13.235  -2.119  0.00  0.00     0.070 C 
ENDBRANCH  20  21
ENDBRANCH  19  20
ENDBRANCH  17  19
ENDBRANCH   5  15
BRANCH   1  28
ATOM     28  C4  <0> d           0.044  -2.080  -1.201  0.00  0.00     0.032 A 
ATOM     29  C3  <0> d          -0.569  -0.829  -1.105  0.00  0.00     0.027 A 
ATOM     30  C2  <0> d          -0.552  -0.146   0.092  0.00  0.00    -0.022 A 
ATOM     31  C1  <0> d          -1.212   1.205   0.197  0.00  0.00     0.051 C 
ATOM     32  C7  <0> d           0.077  -0.696   1.198  0.00  0.00     0.122 A 
ATOM     33  C6  <0> d           0.682  -1.941   1.110  0.00  0.00     0.044 A 
ATOM     34  F1  <0> d           0.096  -0.020   2.368  0.00  0.00    -0.206 F 
ATOM     35  C5  <0> d           0.671  -2.632  -0.082  0.00  0.00     0.020 A 
ENDBRANCH   1  28
TORSDOF 5
