REMARK  6 active torsions:
REMARK  status: ('A' for Active; 'I' for Inactive)
REMARK    1  A    between atoms: N2_5  and  N3_8 
REMARK    2  A    between atoms: C8_12  and  C10_15 
REMARK    3  A    between atoms: C9_13  and  N4_14 
REMARK    4  A    between atoms: C11_17  and  C13_20 
REMARK    5  A    between atoms: C15_22  and  O3_28 
REMARK    6  A    between atoms: C18_25  and  O2_26 
ROOT
ATOM      1  N3  <0> d           1.448  -3.871  -0.034  0.00  0.00    -0.288 N 
ATOM      2  C6  <0> d           2.679  -4.673  -0.006  0.00  0.00     0.229 A 
ATOM      3  C7  <0> d           2.208  -6.112  -0.029  0.00  0.00     0.185 A 
ATOM      4  O1  <0> d           2.901  -7.111  -0.017  0.00  0.00    -0.290 OA
ATOM      5  C8  <0> d           0.806  -6.053  -0.067  0.00  0.00     0.092 A 
ATOM      6  C9  <0> d           0.390  -4.726  -0.062  0.00  0.00     0.129 A 
ENDROOT
BRANCH   5   7
ATOM      7  C10 <0> d          -0.092  -7.223  -0.099  0.00  0.00     0.116 A 
ATOM      8  S1  <0> d          -1.878  -7.278  -0.148  0.00  0.00    -0.079 SA
ATOM      9  C12 <0> d          -2.047  -9.058  -0.167  0.00  0.00     0.084 A 
ATOM     10  C11 <0> d          -0.734  -9.439  -0.128  0.00  0.00     0.077 A 
ATOM     11  N5  <0> d           0.211  -8.513  -0.095  0.00  0.00    -0.239 NA
BRANCH  10  12
ATOM     12  C13 <0> d          -0.372 -10.877  -0.122  0.00  0.00     0.029 A 
ATOM     13  C18 <0> d           0.971 -11.263  -0.082  0.00  0.00     0.081 A 
ATOM     14  C17 <0> d           1.302 -12.607  -0.070  0.00  0.00     0.040 A 
ATOM     15  C16 <0> d           0.309 -13.567  -0.112  0.00  0.00     0.039 A 
ATOM     16  C15 <0> d          -1.026 -13.190  -0.158  0.00  0.00     0.069 A 
ATOM     17  C14 <0> d          -1.369 -11.849  -0.163  0.00  0.00     0.053 A 
BRANCH  13  18
ATOM     18  O2  <0> d           1.950 -10.320  -0.047  0.00  0.00    -0.355 OA
ATOM     19  C19 <0> d           3.299 -10.787  -0.007  0.00  0.00     0.210 C 
ENDBRANCH  13  18
BRANCH  16  20
ATOM     20  O3  <0> d          -1.999 -14.140  -0.197  0.00  0.00    -0.356 OA
ATOM     21  C20 <0> d          -1.574 -15.504  -0.189  0.00  0.00     0.210 C 
ENDBRANCH  16  20
ENDBRANCH  10  12
ENDBRANCH   5   7
BRANCH   6  22
ATOM     22  N4  <0> d          -0.915  -4.330  -0.088  0.00  0.00    -0.384 N 
ATOM     23  H14 <0> d          -1.136  -3.386  -0.086  0.00  0.00     0.157 HD
ATOM     24  H15 <0> d          -1.623  -4.994  -0.108  0.00  0.00     0.157 HD
ENDBRANCH   6  22
BRANCH   1  25
ATOM     25  N2  <0> d           1.378  -2.507  -0.025  0.00  0.00    -0.224 NA
ATOM     26  C3  <0> d           0.693  -2.008  -1.226  0.00  0.00     0.141 C 
ATOM     27  C2  <0> d           0.688  -0.477  -1.207  0.00  0.00     0.250 C 
ATOM     28  N1  <0> d           0.002  -0.004   0.002  0.00  0.00    -0.073 N 
ATOM     29  C1  <0> d          -0.018   1.465   0.010  0.00  0.00     0.269 C 
ATOM     30  C5  <0> d           0.713  -0.490   1.192  0.00  0.00     0.250 C 
ATOM     31  H26 <0> d          -0.945  -0.353   0.010  0.00  0.00     0.279 HD
ATOM     32  C4  <0> d           0.717  -2.021   1.194  0.00  0.00     0.141 C 
ENDBRANCH   1  25
TORSDOF 6
