REMARK  6 active torsions:
REMARK  status: ('A' for Active; 'I' for Inactive)
REMARK    1  A    between atoms: C2_2  and  S1_3 
REMARK    2  A    between atoms: S1_3  and  N1_6 
REMARK    3  A    between atoms: N1_6  and  N2_7 
REMARK    4  A    between atoms: N2_7  and  C3_8 
REMARK    5  A    between atoms: C6_11  and  S2_14 
REMARK    6  A    between atoms: S2_14  and  C9_17 
ROOT
ATOM      1  C3  <0> d          -1.230   1.648   0.017  0.00  0.00     0.048 A 
ATOM      2  C4  <0> d          -1.251   3.037   0.030  0.00  0.00     0.032 A 
ATOM      3  C5  <0> d          -2.458   3.708   0.035  0.00  0.00     0.026 A 
ATOM      4  C6  <0> d          -3.645   2.998   0.037  0.00  0.00     0.064 A 
ATOM      5  C7  <0> d          -3.628   1.616   0.029  0.00  0.00     0.026 A 
ATOM      6  C8  <0> d          -2.424   0.938   0.019  0.00  0.00     0.032 A 
ENDROOT
BRANCH   4   7
ATOM      7  S2  <0> d          -5.183   3.859   0.049  0.00  0.00     0.206 S 
ATOM      8  O3  <0> d          -4.932   5.147  -0.496  0.00  0.00    -0.217 OA
ATOM      9  O4  <0> d          -6.147   2.973  -0.503  0.00  0.00    -0.217 OA
BRANCH   7  10
ATOM     10  C9  <0> d          -5.630   4.103   1.735  0.00  0.00     0.064 A 
ATOM     11  C14 <0> d          -5.221   5.244   2.400  0.00  0.00     0.024 A 
ATOM     12  C13 <0> d          -5.571   5.436   3.724  0.00  0.00     0.008 A 
ATOM     13  C12 <0> d          -6.332   4.487   4.382  0.00  0.00    -0.062 A 
ATOM     14  C11 <0> d          -6.741   3.347   3.716  0.00  0.00     0.008 A 
ATOM     15  C15 <0> d          -6.714   4.697   5.824  0.00  0.00     0.048 C 
ATOM     16  C10 <0> d          -6.394   3.157   2.392  0.00  0.00     0.024 A 
ENDBRANCH   7  10
ENDBRANCH   4   7
BRANCH   1  17
ATOM     17  N2  <0> d          -0.011   0.966   0.007  0.00  0.00    -0.292 N 
ATOM     18  H7  <0> d           0.002  -0.004   0.002  0.00  0.00     0.187 HD
BRANCH  17  19
ATOM     19  N1  <0> d           1.193   1.683  -0.000  0.00  0.00    -0.227 N 
ATOM     20  H6  <0> d           1.356   2.349  -0.686  0.00  0.00     0.200 HD
BRANCH  19  21
ATOM     21  S1  <0> d           2.336   1.393   1.162  0.00  0.00     0.243 S 
ATOM     22  O1  <0> d           3.439   2.212   0.797  0.00  0.00    -0.204 OA
ATOM     23  O2  <0> d           1.659   1.597   2.395  0.00  0.00    -0.204 OA
BRANCH  21  24
ATOM     24  C2  <0> d           2.766  -0.358   0.968  0.00  0.00     0.160 C 
ATOM     25  C1  <0> d           3.826  -0.741   2.002  0.00  0.00     0.023 C 
ENDBRANCH  21  24
ENDBRANCH  19  21
ENDBRANCH  17  19
ENDBRANCH   1  17
TORSDOF 6
