REMARK  4 active torsions:
REMARK  status: ('A' for Active; 'I' for Inactive)
REMARK    1  A    between atoms: C2_2  and  C5_5 
REMARK    2  A    between atoms: C8_8  and  N3_20 
REMARK    3  A    between atoms: C9_9  and  N1_11 
REMARK    4  A    between atoms: N1_11  and  C12_13 
ROOT
ATOM      1  C5  <0> d           0.726  -1.561  -1.351  0.00  0.00    -0.005 C 
ATOM      2  C6  <0> d           1.400  -2.934  -1.315  0.00  0.00     0.007 C 
ATOM      3  C7  <0> d           2.194  -3.147  -2.606  0.00  0.00     0.035 C 
ATOM      4  C8  <0> d           3.260  -2.058  -2.734  0.00  0.00     0.216 C 
ATOM      5  C9  <0> d           2.586  -0.685  -2.771  0.00  0.00     0.253 C 
ATOM      6  C10 <0> d           1.792  -0.472  -1.480  0.00  0.00     0.043 C 
ENDROOT
BRANCH   5   7
ATOM      7  N1  <0> d           3.610   0.361  -2.894  0.00  0.00     0.095 N 
ATOM      8  C11 <0> d           4.788   0.043  -2.076  0.00  0.00     0.310 C 
BRANCH   7   9
ATOM      9  C12 <0> d           3.985   0.567  -4.299  0.00  0.00     0.226 C 
ATOM     10  C16 <0> d           5.170   1.535  -4.376  0.00  0.00     0.063 C 
ATOM     11  C15 <0> d           5.504   1.807  -5.844  0.00  0.00     0.236 C 
ATOM     12  N2  <0> d           4.341   2.402  -6.513  0.00  0.00    -0.075 N 
ATOM     13  C14 <0> d           3.223   1.451  -6.506  0.00  0.00     0.236 C 
ATOM     14  C17 <0> d           4.691   2.733  -7.900  0.00  0.00     0.269 C 
ATOM     15  H37 <0> d           4.069   3.243  -6.027  0.00  0.00     0.279 HD
ATOM     16  C13 <0> d           2.800   1.165  -5.063  0.00  0.00     0.063 C 
ENDBRANCH   7   9
ENDBRANCH   5   7
BRANCH   4  17
ATOM     17  N3  <0> d           4.022  -2.262  -3.973  0.00  0.00    -0.073 N 
ATOM     18  H34 <0> d           3.455  -1.997  -4.764  0.00  0.00     0.274 HD
ATOM     19  H35 <0> d           4.857  -1.696  -3.953  0.00  0.00     0.274 HD
ATOM     20  H36 <0> d           4.278  -3.235  -4.054  0.00  0.00     0.274 HD
ENDBRANCH   4  17
BRANCH   1  21
ATOM     21  C2  <0> d          -0.068  -1.348  -0.061  0.00  0.00    -0.048 C 
ATOM     22  C1  <0> d          -0.742   0.025  -0.097  0.00  0.00     0.015 C 
ATOM     23  C3  <0> d           0.880  -1.419   1.138  0.00  0.00     0.015 C 
ATOM     24  C4  <0> d          -1.135  -2.437   0.068  0.00  0.00     0.015 C 
ENDBRANCH   1  21
TORSDOF 4
