REMARK  6 active torsions:
REMARK  status: ('A' for Active; 'I' for Inactive)
REMARK    1  A    between atoms: C2_2  and  O1_3 
REMARK    2  A    between atoms: O1_3  and  C3_4 
REMARK    3  A    between atoms: C3_4  and  C4_5 
REMARK    4  A    between atoms: C4_5  and  N1_6 
REMARK    5  A    between atoms: N1_6  and  S1_7 
REMARK    6  A    between atoms: S1_7  and  C5_10 
ROOT
ATOM      1  C5  <0> d          -2.258   1.894   1.549  0.00  0.00     0.081 A 
ATOM      2  C6  <0> d          -3.108   0.800   1.631  0.00  0.00     0.034 A 
ATOM      3  C7  <0> d          -3.736   0.485   2.817  0.00  0.00    -0.033 A 
ATOM      4  C8  <0> d          -3.525   1.277   3.941  0.00  0.00     0.051 A 
ATOM      5  C9  <0> d          -2.667   2.389   3.852  0.00  0.00    -0.001 A 
ATOM      6  C10 <0> d          -2.036   2.686   2.639  0.00  0.00     0.039 A 
ATOM      7  C11 <0> d          -2.451   3.216   5.040  0.00  0.00    -0.044 A 
ATOM      8  C12 <0> d          -3.090   2.880   6.188  0.00  0.00     0.082 A 
ATOM      9  C13 <0> d          -3.941   1.755   6.224  0.00  0.00     0.246 A 
ATOM     10  O4  <0> d          -4.505   1.470   7.267  0.00  0.00    -0.268 OA
ATOM     11  N2  <0> d          -4.145   0.989   5.138  0.00  0.00    -0.322 N 
ATOM     12  H1  <0> d          -4.755   0.199   5.200  0.00  0.00     0.169 HD
ATOM     13  C14 <0> d          -1.540   4.415   4.989  0.00  0.00     0.049 C 
ATOM     14  C15 <0> d          -4.651  -0.710   2.894  0.00  0.00     0.050 C 
ENDROOT
BRANCH   1  15
ATOM     15  S1  <0> d          -1.463   2.269   0.021  0.00  0.00     0.258 S 
ATOM     16  O2  <0> d          -1.153   3.655   0.054  0.00  0.00    -0.201 OA
ATOM     17  O3  <0> d          -2.260   1.691  -1.004  0.00  0.00    -0.201 OA
BRANCH  15  18
ATOM     18  N1  <0> d          -0.018   1.461   0.010  0.00  0.00    -0.313 N 
ATOM     19  H11 <0> d           0.816   1.957   0.005  0.00  0.00     0.172 HD
BRANCH  18  20
ATOM     20  C4  <0> d           0.002  -0.004   0.002  0.00  0.00     0.158 C 
BRANCH  20  21
ATOM     21  C3  <0> d           1.399  -0.493  -0.387  0.00  0.00     0.187 C 
BRANCH  21  22
ATOM     22  O1  <0> d           2.336  -0.108   0.620  0.00  0.00    -0.390 OA
BRANCH  22  23
ATOM     23  C2  <0> d           3.679  -0.518   0.352  0.00  0.00     0.163 C 
ATOM     24  C1  <0> d           4.590  -0.054   1.490  0.00  0.00     0.033 C 
ENDBRANCH  22  23
ENDBRANCH  21  22
ENDBRANCH  20  21
ENDBRANCH  18  20
ENDBRANCH  15  18
ENDBRANCH   1  15
TORSDOF 6
