REMARK  4 active torsions:
REMARK  status: ('A' for Active; 'I' for Inactive)
REMARK    1  A    between atoms: C4_5  and  N2_9 
REMARK       I    between atoms: N2_9  and  C7_10 
REMARK    2  A    between atoms: C7_10  and  C8_12 
REMARK    3  A    between atoms: C8_12  and  S2_13 
REMARK    4  A    between atoms: S2_13  and  C9_14 
ROOT
ATOM      1  C1  <0> d           0.284   1.563   0.028  0.00  0.00     0.012 C 
ATOM      2  C2  <0> d           0.161   0.038   0.017  0.00  0.00     0.015 C 
ATOM      3  C3  <0> d          -1.339  -0.368   0.098  0.00  0.00     0.050 C 
ATOM      4  S1  <0> d          -1.185  -2.110   0.677  0.00  0.00    -0.138 SA
ATOM      5  C4  <0> d           0.498  -2.039   1.415  0.00  0.00     0.164 C 
ATOM      6  C5  <0> d           0.883  -0.550   1.241  0.00  0.00     0.130 C 
ATOM      7  C6  <0> d           0.492   0.200   2.446  0.00  0.00     0.067 C 
ATOM      8  N1  <0> d           0.191   0.779   3.376  0.00  0.00    -0.197 NA
ATOM      9  C12 <0> d          -2.006  -0.298  -1.277  0.00  0.00     0.022 C 
ENDROOT
BRANCH   5  10
ATOM     10  N2  <0> d           0.461  -2.407   2.833  0.00  0.00    -0.346 N 
ATOM     11  C7  <0> d           1.039  -3.551   3.248  0.00  0.00     0.228 C 
ATOM     12  O1  <0> d           1.670  -4.230   2.465  0.00  0.00    -0.273 OA
ATOM     13  H9  <0> d           0.019  -1.827   3.473  0.00  0.00     0.163 HD
BRANCH  11  14
ATOM     14  C8  <0> d           0.904  -3.986   4.684  0.00  0.00     0.179 C 
BRANCH  14  15
ATOM     15  S2  <0> d           1.786  -5.552   4.927  0.00  0.00    -0.121 SA
BRANCH  15  16
ATOM     16  C9  <0> d           1.529  -5.933   6.682  0.00  0.00     0.285 A 
ATOM     17  N5  <0> d           0.494  -5.023   7.199  0.00  0.00    -0.162 NA
ATOM     18  N4  <0> d          -0.532  -5.497   7.697  0.00  0.00    -0.094 NA
ATOM     19  C11 <0> d          -0.775  -6.808   7.801  0.00  0.00     0.366 A 
ATOM     20  N3  <0> d           0.067  -7.764   7.377  0.00  0.00    -0.274 N 
ATOM     21  O3  <0> d          -1.821  -7.155   8.309  0.00  0.00    -0.243 OA
ATOM     22  C10 <0> d           1.245  -7.419   6.803  0.00  0.00     0.262 A 
ATOM     23  H12 <0> d          -0.168  -8.699   7.481  0.00  0.00     0.173 HD
ATOM     24  O2  <0> d           2.031  -8.254   6.409  0.00  0.00    -0.270 OA
ENDBRANCH  15  16
ENDBRANCH  14  15
ENDBRANCH  11  14
ENDBRANCH   5  10
TORSDOF 4
