REMARK  8 active torsions:
REMARK  status: ('A' for Active; 'I' for Inactive)
REMARK    1  A    between atoms: C5_5  and  N1_9 
REMARK    2  A    between atoms: N1_9  and  C9_10 
REMARK    3  A    between atoms: C9_10  and  C10_11 
REMARK       I    between atoms: C10_11  and  N2_13 
REMARK    4  A    between atoms: N2_13  and  N3_14 
REMARK    5  A    between atoms: C11_15  and  C12_16 
REMARK    6  A    between atoms: C17_21  and  O2_22 
REMARK    7  A    between atoms: O2_22  and  C18_23 
REMARK    8  A    between atoms: C18_23  and  C19_24 
ROOT
ATOM      1  C10 <0> d          -6.011   1.599   0.039  0.00  0.00     0.250 C 
ATOM      2  O1  <0> d          -6.022   2.812   0.046  0.00  0.00    -0.270 OA
ATOM      3  N2  <0> d          -4.837   0.936   0.030  0.00  0.00    -0.246 N 
ATOM      4  H12 <0> d          -4.828  -0.034   0.025  0.00  0.00     0.192 HD
ENDROOT
BRANCH   3   5
ATOM      5  N3  <0> d          -3.630   1.648   0.028  0.00  0.00    -0.184 NA
ATOM      6  C11 <0> d          -2.500   1.010   0.019  0.00  0.00     0.153 C 
BRANCH   6   7
ATOM      7  C12 <0> d          -1.231   1.759   0.017  0.00  0.00     0.016 A 
ATOM      8  C17 <0> d          -1.240   3.160   0.030  0.00  0.00     0.081 A 
ATOM      9  C16 <0> d          -0.041   3.854   0.023  0.00  0.00     0.037 A 
ATOM     10  C15 <0> d           1.158   3.167   0.007  0.00  0.00     0.003 A 
ATOM     11  C14 <0> d           1.171   1.783   0.000  0.00  0.00     0.001 A 
ATOM     12  C13 <0> d          -0.013   1.076   0.008  0.00  0.00     0.016 A 
BRANCH   8  13
ATOM     13  O2  <0> d          -2.418   3.835   0.045  0.00  0.00    -0.340 OA
BRANCH  13  14
ATOM     14  C18 <0> d          -2.349   5.262   0.052  0.00  0.00     0.288 C 
BRANCH  14  15
ATOM     15  C19 <0> d          -3.743   5.833   0.069  0.00  0.00     0.198 C 
ATOM     16  O3  <0> d          -4.699   5.093   0.074  0.00  0.00    -0.646 OA
ATOM     17  O4  <0> d          -3.924   7.163   0.077  0.00  0.00    -0.646 OA
ENDBRANCH  14  15
ENDBRANCH  13  14
ENDBRANCH   8  13
ENDBRANCH   6   7
ENDBRANCH   3   5
BRANCH   1  18
ATOM     18  C9  <0> d          -7.308   0.834   0.041  0.00  0.00     0.197 C 
BRANCH  18  19
ATOM     19  N1  <0> d          -8.434   1.778   0.052  0.00  0.00    -0.283 NA
ATOM     20  H9  <0> d          -8.377   2.417  -0.727  0.00  0.00     0.128 HD
BRANCH  19  21
ATOM     21  C5  <0> d          -9.655   1.100   0.054  0.00  0.00     0.020 A 
ATOM     22  C4  <0> d         -10.551   1.283   1.100  0.00  0.00    -0.040 A 
ATOM     23  C3  <0> d         -11.758   0.612   1.099  0.00  0.00     0.015 A 
ATOM     24  C20 <0> d         -10.205   2.211   2.236  0.00  0.00     0.050 C 
ATOM     25  C2  <0> d         -12.076  -0.241   0.058  0.00  0.00    -0.061 A 
ATOM     26  C1  <0> d         -13.394  -0.972   0.060  0.00  0.00     0.048 C 
ATOM     27  C7  <0> d         -11.187  -0.425  -0.986  0.00  0.00     0.015 A 
ATOM     28  C6  <0> d          -9.980   0.247  -0.993  0.00  0.00    -0.040 A 
ATOM     29  C8  <0> d          -9.015   0.051  -2.134  0.00  0.00     0.050 C 
ENDBRANCH  19  21
ENDBRANCH  18  19
ENDBRANCH   1  18
TORSDOF 8
