REMARK  8 active torsions:
REMARK  status: ('A' for Active; 'I' for Inactive)
REMARK    1  A    between atoms: C2_2  and  C3_3 
REMARK    2  A    between atoms: N1_6  and  N3_10 
REMARK       I    between atoms: N3_10  and  C6_11 
REMARK    3  A    between atoms: C6_11  and  C7_13 
REMARK    4  A    between atoms: C7_13  and  N4_14 
REMARK    5  A    between atoms: N4_14  and  C8_15 
REMARK    6  A    between atoms: N4_14  and  C10_17 
REMARK    7  A    between atoms: C10_17  and  C11_18 
REMARK       I    between atoms: C11_18  and  N5_20 
REMARK    8  A    between atoms: N5_20  and  C12_21 
ROOT
ATOM      1  N3  <0> d          -2.496  -5.093  -4.212  0.00  0.00    -0.255 N 
ATOM      2  C6  <0> d          -3.726  -5.293  -3.699  0.00  0.00     0.262 C 
ATOM      3  O3  <0> d          -4.685  -5.374  -4.437  0.00  0.00    -0.270 OA
ATOM      4  H7  <0> d          -1.729  -5.029  -3.621  0.00  0.00     0.191 HD
ENDROOT
BRANCH   2   5
ATOM      5  C7  <0> d          -3.910  -5.417  -2.208  0.00  0.00     0.339 C 
BRANCH   5   6
ATOM      6  N4  <0> d          -5.303  -5.780  -1.915  0.00  0.00    -0.055 N 
ATOM      7  H30 <0> d          -5.924  -5.127  -2.370  0.00  0.00     0.281 HD
BRANCH   6   8
ATOM      8  C8  <0> d          -5.526  -5.738  -0.464  0.00  0.00     0.231 C 
ATOM      9  C9  <0> d          -5.382  -4.298   0.033  0.00  0.00     0.034 C 
ENDBRANCH   6   8
BRANCH   6  10
ATOM     10  C10 <0> d          -5.571  -7.136  -2.413  0.00  0.00     0.337 C 
BRANCH  10  11
ATOM     11  C11 <0> d          -7.030  -7.462  -2.224  0.00  0.00     0.244 C 
ATOM     12  O4  <0> d          -7.774  -6.645  -1.723  0.00  0.00    -0.272 OA
ATOM     13  N5  <0> d          -7.508  -8.661  -2.610  0.00  0.00    -0.352 N 
ATOM     14  H17 <0> d          -6.913  -9.314  -3.010  0.00  0.00     0.163 HD
BRANCH  13  15
ATOM     15  C12 <0> d          -8.927  -8.978  -2.426  0.00  0.00     0.022 C 
ATOM     16  C13 <0> d          -9.779  -7.972  -3.203  0.00  0.00     0.037 C 
ATOM     17  C14 <0> d          -9.206 -10.390  -2.944  0.00  0.00     0.037 C 
ATOM     18  C15 <0> d          -9.277  -8.902  -0.938  0.00  0.00     0.037 C 
ENDBRANCH  13  15
ENDBRANCH  10  11
ENDBRANCH   6  10
ENDBRANCH   5   6
ENDBRANCH   2   5
BRANCH   1  19
ATOM     19  N1  <0> d          -2.325  -4.978  -5.597  0.00  0.00    -0.167 N 
ATOM     20  C4  <0> d          -2.092  -3.815  -6.238  0.00  0.00     0.275 A 
ATOM     21  C3  <0> d          -1.976  -4.172  -7.706  0.00  0.00     0.114 A 
ATOM     22  O1  <0> d          -1.997  -2.713  -5.742  0.00  0.00    -0.268 OA
ATOM     23  N2  <0> d          -2.175  -5.632  -7.724  0.00  0.00    -0.323 N 
ATOM     24  C16 <0> d          -3.063  -3.470  -8.522  0.00  0.00     0.049 C 
ATOM     25  C5  <0> d          -2.371  -6.010  -6.448  0.00  0.00     0.345 A 
ATOM     26  H6  <0> d          -2.167  -6.208  -8.505  0.00  0.00     0.165 HD
ATOM     27  O2  <0> d          -2.568  -7.159  -6.107  0.00  0.00    -0.245 OA
BRANCH  21  28
ATOM     28  C2  <0> d          -0.588  -3.812  -8.239  0.00  0.00     0.036 C 
ATOM     29  C1  <0> d          -0.461  -4.281  -9.690  0.00  0.00     0.008 C 
ENDBRANCH  21  28
ENDBRANCH   1  19
TORSDOF 8
