REMARK  3 active torsions:
REMARK  status: ('A' for Active; 'I' for Inactive)
REMARK    1  A    between atoms: N1_5  and  S1_9 
REMARK    2  A    between atoms: S1_9  and  C8_12 
REMARK    3  A    between atoms: C9_13  and  N4_20 
ROOT
ATOM      1  C8  <0> d          -0.305  -5.608   0.831  0.00  0.00     0.203 A 
ATOM      2  C9  <0> d          -0.852  -6.244  -0.226  0.00  0.00     0.167 A 
ATOM      3  N2  <0> d          -0.044  -7.261  -0.570  0.00  0.00    -0.203 NA
ATOM      4  C10 <0> d           0.982  -7.279   0.233  0.00  0.00     0.180 A 
ATOM      5  N3  <0> d           0.891  -6.260   1.143  0.00  0.00    -0.286 N 
ATOM      6  C11 <0> d           1.914  -6.148   2.060  0.00  0.00     0.107 A 
ATOM      7  C12 <0> d           2.939  -6.999   2.045  0.00  0.00     0.071 A 
ATOM      8  S2  <0> d           2.509  -8.071   0.683  0.00  0.00    -0.062 SA
ENDROOT
BRANCH   1   9
ATOM      9  S1  <0> d          -0.973  -4.205   1.662  0.00  0.00     0.281 S 
ATOM     10  O1  <0> d          -0.222  -4.045   2.858  0.00  0.00    -0.199 OA
ATOM     11  O2  <0> d          -2.385  -4.369   1.665  0.00  0.00    -0.199 OA
BRANCH   9  12
ATOM     12  N1  <0> d          -0.652  -2.880   0.721  0.00  0.00    -0.301 N 
ATOM     13  C4  <0> d          -1.682  -2.328  -0.170  0.00  0.00     0.136 C 
ATOM     14  C3  <0> d          -1.846  -0.835   0.132  0.00  0.00     0.025 C 
ATOM     15  C2  <0> d          -0.484  -0.144   0.024  0.00  0.00    -0.015 C 
ATOM     16  C1  <0> d          -0.650   1.353   0.290  0.00  0.00     0.010 C 
ATOM     17  C6  <0> d           0.476  -0.743   1.054  0.00  0.00     0.030 C 
ATOM     18  C5  <0> d           0.667  -2.235   0.763  0.00  0.00     0.092 C 
ATOM     19  C7  <0> d           1.515  -2.871   1.865  0.00  0.00     0.033 C 
ENDBRANCH   9  12
ENDBRANCH   1   9
BRANCH   2  20
ATOM     20  N4  <0> d          -2.057  -5.902  -0.857  0.00  0.00    -0.377 N 
ATOM     21  C13 <0> d          -2.533  -6.684  -2.000  0.00  0.00     0.148 C 
ATOM     22  H17 <0> d          -2.576  -5.147  -0.536  0.00  0.00     0.160 HD
ENDBRANCH   2  20
TORSDOF 3
