REMARK  6 active torsions:
REMARK  status: ('A' for Active; 'I' for Inactive)
REMARK    1  A    between atoms: C4_4  and  S1_16 
REMARK    2  A    between atoms: C5_5  and  N1_7 
REMARK       I    between atoms: N1_7  and  C7_8 
REMARK    3  A    between atoms: C7_8  and  C8_10 
REMARK    4  A    between atoms: C8_10  and  N2_15 
REMARK    5  A    between atoms: S1_16  and  C13_17 
REMARK    6  A    between atoms: C13_17  and  C14_18 
ROOT
ATOM      1  N1  <0> d           1.233  -2.082  -0.021  0.00  0.00    -0.324 N 
ATOM      2  C7  <0> d           0.082  -2.774   0.088  0.00  0.00     0.258 C 
ATOM      3  O1  <0> d          -0.980  -2.187   0.102  0.00  0.00    -0.270 OA
ATOM      4  H5  <0> d           2.076  -2.554  -0.113  0.00  0.00     0.169 HD
ENDROOT
BRANCH   1   5
ATOM      5  C5  <0> d           1.213  -0.681  -0.002  0.00  0.00     0.051 A 
ATOM      6  C4  <0> d           2.241   0.042  -0.608  0.00  0.00     0.027 A 
ATOM      7  C3  <0> d           2.215   1.429  -0.585  0.00  0.00     0.021 A 
ATOM      8  C2  <0> d           1.172   2.090   0.036  0.00  0.00     0.002 A 
ATOM      9  C1  <0> d           0.153   1.373   0.637  0.00  0.00     0.002 A 
ATOM     10  C6  <0> d           0.171  -0.009   0.619  0.00  0.00     0.031 A 
BRANCH   6  11
ATOM     11  S1  <0> d           3.568  -0.804  -1.401  0.00  0.00    -0.119 SA
BRANCH  11  12
ATOM     12  C13 <0> d           4.629   0.529  -2.024  0.00  0.00     0.196 C 
BRANCH  12  13
ATOM     13  C14 <0> d           5.836  -0.074  -2.744  0.00  0.00     0.396 C 
ATOM     14  F1  <0> d           5.396  -0.859  -3.815  0.00  0.00    -0.170 F 
ATOM     15  F2  <0> d           6.654   0.954  -3.224  0.00  0.00    -0.170 F 
ATOM     16  F3  <0> d           6.563  -0.869  -1.851  0.00  0.00    -0.170 F 
ENDBRANCH  12  13
ENDBRANCH  11  12
ENDBRANCH   6  11
ENDBRANCH   1   5
BRANCH   2  17
ATOM     17  C8  <0> d           0.113  -4.277   0.194  0.00  0.00     0.203 C 
ATOM     18  C12 <0> d          -1.151  -4.795   0.910  0.00  0.00     0.049 C 
ATOM     19  C11 <0> d          -2.158  -5.170  -0.192  0.00  0.00     0.003 C 
ATOM     20  C10 <0> d          -1.470  -4.867  -1.539  0.00  0.00     0.003 C 
ATOM     21  C9  <0> d           0.043  -4.921  -1.214  0.00  0.00     0.049 C 
BRANCH  17  22
ATOM     22  N2  <0> d           1.322  -4.717   0.903  0.00  0.00    -0.061 N 
ATOM     23  H14 <0> d           1.323  -4.332   1.836  0.00  0.00     0.275 HD
ATOM     24  H15 <0> d           1.334  -5.724   0.955  0.00  0.00     0.275 HD
ATOM     25  H18 <0> d           2.139  -4.396   0.406  0.00  0.00     0.275 HD
ENDBRANCH  17  22
ENDBRANCH   2  17
TORSDOF 6
