REMARK  4 active torsions:
REMARK  status: ('A' for Active; 'I' for Inactive)
REMARK    1  A    between atoms: N1_4  and  C5_6 
REMARK    2  A    between atoms: C6_7  and  N6_15 
REMARK    3  A    between atoms: C11_18  and  N7_28 
REMARK    4  A    between atoms: C17_24  and  O2_26 
ROOT
ATOM      1  N6  <0> d          -2.041   2.269  -3.606  0.00  0.00    -0.265 NA
ATOM      2  C9  <0> d          -1.405   3.502  -3.124  0.00  0.00     0.099 C 
ATOM      3  C10 <0> d          -2.447   4.620  -3.051  0.00  0.00     0.048 C 
ATOM      4  C11 <0> d          -3.047   4.843  -4.442  0.00  0.00     0.190 C 
ATOM      5  C12 <0> d          -3.660   3.532  -4.941  0.00  0.00     0.048 C 
ATOM      6  C13 <0> d          -2.583   2.445  -4.959  0.00  0.00     0.099 C 
ENDROOT
BRANCH   1   7
ATOM      7  C6  <0> d          -1.160   1.207  -3.560  0.00  0.00     0.148 A 
ATOM      8  C5  <0> d          -0.504   0.861  -2.292  0.00  0.00     0.148 A 
ATOM      9  N3  <0> d           0.343  -0.144  -2.227  0.00  0.00    -0.208 NA
ATOM     10  C8  <0> d           0.601  -0.864  -3.327  0.00  0.00     0.231 A 
ATOM     11  C7  <0> d          -0.061  -0.514  -4.607  0.00  0.00     0.231 A 
ATOM     12  N4  <0> d           1.345  -1.892  -3.658  0.00  0.00    -0.081 NA
ATOM     13  N2  <0> d          -0.916   0.516  -4.653  0.00  0.00    -0.208 NA
ATOM     14  N5  <0> d           0.425  -1.406  -5.437  0.00  0.00    -0.081 NA
ATOM     15  O1  <0> d           1.193  -2.130  -4.838  0.00  0.00    -0.103 OA
BRANCH   8  16
ATOM     16  N1  <0> d          -0.776   1.600  -1.158  0.00  0.00    -0.265 NA
ATOM     17  C3  <0> d          -0.013   1.086   0.008  0.00  0.00     0.097 C 
ATOM     18  C2  <0> d          -0.782   1.607   1.240  0.00  0.00     0.016 C 
ATOM     19  C1  <0> d          -2.223   1.850   0.736  0.00  0.00     0.016 C 
ATOM     20  C4  <0> d          -2.199   1.455  -0.756  0.00  0.00     0.097 C 
ENDBRANCH   8  16
ENDBRANCH   1   7
BRANCH   4  21
ATOM     21  N7  <0> d          -4.099   5.880  -4.396  0.00  0.00    -0.064 N 
ATOM     22  C14 <0> d          -5.208   5.436  -3.525  0.00  0.00     0.235 C 
ATOM     23  C15 <0> d          -6.335   6.470  -3.589  0.00  0.00     0.030 C 
ATOM     24  C16 <0> d          -5.807   7.822  -3.102  0.00  0.00     0.035 C 
ATOM     25  C17 <0> d          -4.612   8.235  -3.966  0.00  0.00     0.144 C 
ATOM     26  C18 <0> d          -3.535   7.150  -3.892  0.00  0.00     0.266 C 
ATOM     27  H28 <0> d          -4.461   6.030  -5.346  0.00  0.00     0.280 HD
BRANCH  25  28
ATOM     28  O2  <0> d          -4.078   9.470  -3.484  0.00  0.00    -0.394 OA
ATOM     29  H27 <0> d          -4.707  10.204  -3.503  0.00  0.00     0.210 HD
ENDBRANCH  25  28
ENDBRANCH   4  21
TORSDOF 4
