REMARK  7 active torsions:
REMARK  status: ('A' for Active; 'I' for Inactive)
REMARK    1  A    between atoms: C2_2  and  O1_3 
REMARK    2  A    between atoms: O1_3  and  C3_4 
REMARK    3  A    between atoms: C3_4  and  C4_6 
REMARK    4  A    between atoms: C8_10  and  N1_12 
REMARK    5  A    between atoms: C11_14  and  C19_24 
REMARK    6  A    between atoms: C16_19  and  O4_23 
REMARK       I    between atoms: C19_24  and  N2_26 
REMARK    7  A    between atoms: N2_26  and  C20_27 
ROOT
ATOM      1  N1  <0> d           1.661  -6.119  -3.653  0.00  0.00    -0.336 N 
ATOM      2  C10 <0> d           1.787  -6.239  -4.957  0.00  0.00     0.164 C 
ATOM      3  C11 <0> d           2.445  -7.417  -5.555  0.00  0.00     0.084 C 
ATOM      4  C12 <0> d           2.088  -7.757  -6.853  0.00  0.00     0.035 C 
ATOM      5  C13 <0> d           1.146  -6.938  -7.525  0.00  0.00    -0.001 A 
ATOM      6  C14 <0> d           0.602  -7.343  -8.753  0.00  0.00     0.017 A 
ATOM      7  C15 <0> d          -0.335  -6.567  -9.370  0.00  0.00     0.037 A 
ATOM      8  C16 <0> d          -0.752  -5.368  -8.793  0.00  0.00     0.068 A 
ATOM      9  C17 <0> d          -0.211  -4.942  -7.590  0.00  0.00     0.074 A 
ATOM     10  C18 <0> d           0.748  -5.713  -6.954  0.00  0.00     0.090 A 
ATOM     11  O3  <0> d           1.310  -5.287  -5.800  0.00  0.00    -0.292 OA
ATOM     12  H22 <0> d           1.905  -6.856  -3.072  0.00  0.00     0.168 HD
ENDROOT
BRANCH   1  13
ATOM     13  C8  <0> d           1.187  -4.954  -3.116  0.00  0.00     0.035 A 
ATOM     14  C7  <0> d           1.665  -3.724  -3.578  0.00  0.00     0.029 A 
ATOM     15  C6  <0> d           1.186  -2.547  -3.037  0.00  0.00     0.003 A 
ATOM     16  C5  <0> d           0.233  -2.575  -2.039  0.00  0.00     0.018 A 
ATOM     17  C4  <0> d          -0.255  -3.797  -1.568  0.00  0.00     0.041 A 
ATOM     18  C9  <0> d           0.228  -4.989  -2.104  0.00  0.00     0.047 A 
BRANCH  17  19
ATOM     19  C3  <0> d          -1.275  -3.825  -0.499  0.00  0.00     0.293 C 
ATOM     20  O2  <0> d          -1.694  -4.888  -0.087  0.00  0.00    -0.259 OA
BRANCH  19  21
ATOM     21  O1  <0> d          -1.740  -2.672   0.018  0.00  0.00    -0.318 OA
BRANCH  21  22
ATOM     22  C2  <0> d          -2.725  -2.773   1.049  0.00  0.00     0.174 C 
ATOM     23  C1  <0> d          -3.129  -1.371   1.508  0.00  0.00     0.034 C 
ENDBRANCH  21  22
ENDBRANCH  19  21
ENDBRANCH  17  19
ENDBRANCH   1  13
BRANCH   3  24
ATOM     24  C19 <0> d           3.441  -8.200  -4.806  0.00  0.00     0.261 C 
ATOM     25  O5  <0> d           3.874  -9.237  -5.271  0.00  0.00    -0.267 OA
ATOM     26  N2  <0> d           3.872  -7.768  -3.604  0.00  0.00    -0.307 N 
ATOM     27  H15 <0> d           3.492  -6.966  -3.212  0.00  0.00     0.170 HD
BRANCH  26  28
ATOM     28  C20 <0> d           4.863  -8.472  -2.925  0.00  0.00     0.130 A 
ATOM     29  N3  <0> d           5.563  -7.870  -1.976  0.00  0.00    -0.243 NA
ATOM     30  C24 <0> d           6.507  -8.503  -1.306  0.00  0.00     0.125 A 
ATOM     31  C23 <0> d           6.808  -9.822  -1.581  0.00  0.00    -0.044 A 
ATOM     32  C22 <0> d           6.101 -10.488  -2.573  0.00  0.00     0.012 A 
ATOM     33  C25 <0> d           7.893 -10.531  -0.812  0.00  0.00     0.049 C 
ATOM     34  C21 <0> d           5.113  -9.800  -3.255  0.00  0.00     0.051 A 
ENDBRANCH  26  28
ENDBRANCH   3  24
BRANCH   8  35
ATOM     35  O4  <0> d          -1.693  -4.614  -9.414  0.00  0.00    -0.361 OA
ATOM     36  H14 <0> d          -2.600  -4.826  -9.156  0.00  0.00     0.217 HD
ENDBRANCH   8  35
TORSDOF 7
