REMARK  5 active torsions:
REMARK  status: ('A' for Active; 'I' for Inactive)
REMARK    1  A    between atoms: C2_2  and  C3_3 
REMARK    2  A    between atoms: C6_7  and  C7_8 
REMARK       I    between atoms: C7_8  and  N1_10 
REMARK    3  A    between atoms: N1_10  and  C8_11 
REMARK    4  A    between atoms: C11_14  and  C14_17 
REMARK    5  A    between atoms: C14_17  and  N2_18 
REMARK       I    between atoms: N2_18  and  C15_19 
REMARK       I    between atoms: C15_19  and  N3_21 
ROOT
ATOM      1  C8  <0> d           5.301  -0.339   0.524  0.00  0.00     0.035 A 
ATOM      2  C9  <0> d           4.841   0.026   1.782  0.00  0.00     0.030 A 
ATOM      3  C10 <0> d           5.738   0.218   2.815  0.00  0.00     0.011 A 
ATOM      4  C11 <0> d           7.093   0.048   2.597  0.00  0.00    -0.040 A 
ATOM      5  C12 <0> d           7.554  -0.316   1.345  0.00  0.00     0.011 A 
ATOM      6  C13 <0> d           6.662  -0.515   0.309  0.00  0.00     0.030 A 
ENDROOT
BRANCH   1   7
ATOM      7  N1  <0> d           4.396  -0.535  -0.524  0.00  0.00    -0.323 N 
ATOM      8  C7  <0> d           4.626  -1.493  -1.443  0.00  0.00     0.263 C 
ATOM      9  O1  <0> d           5.662  -2.131  -1.411  0.00  0.00    -0.267 OA
ATOM     10  H8  <0> d           3.602   0.019  -0.589  0.00  0.00     0.169 HD
BRANCH   8  11
ATOM     11  C6  <0> d           3.629  -1.766  -2.482  0.00  0.00     0.079 A 
ATOM     12  C3  <0> d           3.669  -2.697  -3.509  0.00  0.00    -0.035 A 
ATOM     13  C4  <0> d           2.570  -2.724  -4.333  0.00  0.00     0.015 A 
ATOM     14  C5  <0> d           1.550  -1.862  -4.100  0.00  0.00     0.051 A 
ATOM     15  S1  <0> d           2.049  -0.987  -2.756  0.00  0.00    -0.096 SA
BRANCH  12  16
ATOM     16  C2  <0> d           4.841  -3.624  -3.705  0.00  0.00     0.035 C 
ATOM     17  C1  <0> d           4.669  -4.858  -2.816  0.00  0.00     0.010 C 
ENDBRANCH  12  16
ENDBRANCH   8  11
ENDBRANCH   1   7
BRANCH   4  18
ATOM     18  C14 <0> d           8.069   0.258   3.726  0.00  0.00     0.162 C 
BRANCH  18  19
ATOM     19  N2  <0> d           8.272  -1.006   4.437  0.00  0.00    -0.339 N 
ATOM     20  C15 <0> d           9.110  -1.059   5.491  0.00  0.00     0.314 C 
ATOM     21  O2  <0> d           9.697  -0.057   5.852  0.00  0.00    -0.248 OA
ATOM     22  N3  <0> d           9.298  -2.222   6.146  0.00  0.00    -0.352 N 
ATOM     23  H16 <0> d           8.830  -3.022   5.858  0.00  0.00     0.160 HD
ATOM     24  H17 <0> d           9.901  -2.260   6.905  0.00  0.00     0.160 HD
ATOM     25  H15 <0> d           7.804  -1.806   4.149  0.00  0.00     0.164 HD
ENDBRANCH  18  19
ENDBRANCH   4  18
TORSDOF 5
