REMARK  6 active torsions:
REMARK  status: ('A' for Active; 'I' for Inactive)
REMARK    1  A    between atoms: C5_5  and  C7_8 
REMARK       I    between atoms: C7_8  and  N2_10 
REMARK    2  A    between atoms: N2_10  and  C8_11 
REMARK    3  A    between atoms: C10_14  and  C11_16 
REMARK    4  A    between atoms: C11_16  and  C12_17 
REMARK    5  A    between atoms: C12_17  and  C13_18 
REMARK    6  A    between atoms: C13_18  and  O2_19 
ROOT
ATOM      1  C7  <0> d           0.072  -3.113   1.524  0.00  0.00     0.274 C 
ATOM      2  O1  <0> d          -0.005  -4.251   1.099  0.00  0.00    -0.266 OA
ATOM      3  N2  <0> d           0.179  -2.894   2.850  0.00  0.00    -0.300 N 
ATOM      4  H9  <0> d           0.165  -1.988   3.195  0.00  0.00     0.171 HD
ENDROOT
BRANCH   3   5
ATOM      5  C8  <0> d           0.309  -3.966   3.721  0.00  0.00     0.174 A 
ATOM      6  S1  <0> d           0.456  -3.936   5.397  0.00  0.00    -0.042 SA
ATOM      7  C10 <0> d           0.564  -5.697   5.668  0.00  0.00     0.079 A 
ATOM      8  C9  <0> d           0.479  -6.158   4.377  0.00  0.00     0.147 A 
ATOM      9  N3  <0> d           0.352  -5.251   3.434  0.00  0.00    -0.235 NA
BRANCH   7  10
ATOM     10  C11 <0> d           0.705  -6.427   6.892  0.00  0.00    -0.056 C 
BRANCH  10  11
ATOM     11  C12 <0> d           0.820  -7.025   7.895  0.00  0.00    -0.075 C 
BRANCH  11  12
ATOM     12  C13 <0> d           0.965  -7.775   9.153  0.00  0.00     0.258 C 
BRANCH  12  13
ATOM     13  O2  <0> d           1.010  -6.861  10.251  0.00  0.00    -0.389 OA
ATOM     14  H13 <0> d           1.104  -7.287  11.114  0.00  0.00     0.210 HD
ENDBRANCH  12  13
ENDBRANCH  11  12
ENDBRANCH  10  11
ENDBRANCH   7  10
ENDBRANCH   3   5
BRANCH   1  15
ATOM     15  C5  <0> d           0.048  -1.980   0.594  0.00  0.00     0.103 A 
ATOM     16  C4  <0> d           0.030  -0.644   0.937  0.00  0.00     0.037 A 
ATOM     17  C3  <0> d           0.011   0.086  -0.256  0.00  0.00     0.027 A 
ATOM     18  C2  <0> d           0.018  -0.797  -1.283  0.00  0.00     0.008 A 
ATOM     19  C1  <0> d           0.003  -0.438  -2.747  0.00  0.00     0.068 C 
ATOM     20  N1  <0> d           0.035  -2.055  -0.780  0.00  0.00    -0.351 N 
ATOM     21  C6  <0> d           0.041  -3.290  -1.568  0.00  0.00     0.156 C 
ENDBRANCH   1  15
TORSDOF 6
