REMARK  4 active torsions:
REMARK  status: ('A' for Active; 'I' for Inactive)
REMARK    1  A    between atoms: N2_13  and  C12_15 
REMARK    2  A    between atoms: C12_15  and  C13_16 
REMARK    3  A    between atoms: C13_16  and  C14_17 
REMARK    4  A    between atoms: C14_17  and  N3_18 
ROOT
ATOM      1  C1  <0> d          -0.016   1.360   0.009  0.00  0.00     0.007 C 
ATOM      2  C2  <0> d           1.200   2.053   0.002  0.00  0.00     0.026 C 
ATOM      3  C3  <0> d           2.378   1.377   0.019  0.00  0.00     0.020 C 
ATOM      4  N1  <0> d           2.396   0.026   0.099  0.00  0.00    -0.317 N 
ATOM      5  C4  <0> d           1.236  -0.670   0.009  0.00  0.00     0.247 C 
ATOM      6  O1  <0> d           1.266  -1.888  -0.065  0.00  0.00    -0.268 OA
ATOM      7  C5  <0> d           0.002  -0.004   0.002  0.00  0.00     0.074 C 
ATOM      8  C6  <0> d           3.616  -0.746   0.339  0.00  0.00     0.138 C 
ATOM      9  C7  <0> d           4.872   0.041   0.005  0.00  0.00     0.033 C 
ATOM     10  C8  <0> d           4.782   1.434   0.634  0.00  0.00     0.020 C 
ATOM     11  C9  <0> d           3.651   2.189  -0.072  0.00  0.00     0.064 C 
ATOM     12  C10 <0> d           4.016   2.310  -1.560  0.00  0.00     0.283 C 
ATOM     13  N2  <0> d           4.052   0.955  -2.131  0.00  0.00     0.089 N 
ATOM     14  C11 <0> d           5.087   0.152  -1.497  0.00  0.00     0.278 C 
ENDROOT
BRANCH  13  15
ATOM     15  C12 <0> d           4.235   1.002  -3.588  0.00  0.00     0.274 C 
BRANCH  15  16
ATOM     16  C13 <0> d           3.004   1.637  -4.237  0.00  0.00     0.057 C 
BRANCH  16  17
ATOM     17  C14 <0> d           3.194   1.686  -5.754  0.00  0.00     0.231 C 
BRANCH  17  18
ATOM     18  N3  <0> d           2.012   2.296  -6.376  0.00  0.00    -0.079 N 
ATOM     19  H20 <0> d           1.891   3.233  -6.022  0.00  0.00     0.274 HD
ATOM     20  H21 <0> d           2.138   2.328  -7.377  0.00  0.00     0.274 HD
ATOM     21  H22 <0> d           1.195   1.746  -6.158  0.00  0.00     0.274 HD
ENDBRANCH  17  18
ENDBRANCH  16  17
ENDBRANCH  15  16
ENDBRANCH  13  15
TORSDOF 4
