REMARK  4 active torsions:
REMARK  status: ('A' for Active; 'I' for Inactive)
REMARK    1  A    between atoms: C3_3  and  C17_22 
REMARK    2  A    between atoms: C5_5  and  N1_7 
REMARK       I    between atoms: N1_7  and  C7_8 
REMARK    3  A    between atoms: C7_8  and  C8_10 
REMARK    4  A    between atoms: C13_15  and  O3_21 
ROOT
ATOM      1  C8  <0> d           1.059   7.395   0.239  0.00  0.00     0.084 A 
ATOM      2  C9  <0> d          -0.142   8.079   0.249  0.00  0.00     0.035 A 
ATOM      3  C10 <0> d          -0.124   9.492   0.368  0.00  0.00    -0.001 A 
ATOM      4  C11 <0> d          -1.329  10.211   0.385  0.00  0.00     0.017 A 
ATOM      5  C12 <0> d          -1.311  11.570   0.495  0.00  0.00     0.037 A 
ATOM      6  C13 <0> d          -0.099  12.252   0.590  0.00  0.00     0.068 A 
ATOM      7  C14 <0> d           1.101  11.560   0.575  0.00  0.00     0.074 A 
ATOM      8  C15 <0> d           1.101  10.177   0.464  0.00  0.00     0.090 A 
ATOM      9  O2  <0> d           2.275   9.506   0.449  0.00  0.00    -0.292 OA
ATOM     10  C16 <0> d           2.313   8.162   0.342  0.00  0.00     0.157 A 
ATOM     11  N2  <0> d           3.461   7.540   0.330  0.00  0.00    -0.379 N 
ATOM     12  H10 <0> d           4.397   8.112   0.406  0.00  0.00     0.158 HD
ATOM     13  H12 <0> d           3.492   6.444   0.242  0.00  0.00     0.158 HD
ENDROOT
BRANCH   1  14
ATOM     14  C7  <0> d           1.085   5.930   0.122  0.00  0.00     0.260 C 
ATOM     15  N1  <0> d          -0.069   5.241   0.028  0.00  0.00    -0.323 N 
ATOM     16  H5  <0> d          -1.026   5.778  -0.048  0.00  0.00     0.169 HD
ATOM     17  O1  <0> d           2.149   5.340   0.109  0.00  0.00    -0.267 OA
BRANCH  15  18
ATOM     18  C5  <0> d          -0.051   3.842   0.028  0.00  0.00     0.035 A 
ATOM     19  C4  <0> d           0.906   3.159   0.766  0.00  0.00     0.045 A 
ATOM     20  C3  <0> d           0.918   1.778   0.769  0.00  0.00     0.050 A 
ATOM     21  C2  <0> d          -0.015   1.076   0.028  0.00  0.00     0.016 A 
ATOM     22  C1  <0> d          -0.969   1.753  -0.709  0.00  0.00     0.003 A 
ATOM     23  C6  <0> d          -0.990   3.134  -0.711  0.00  0.00     0.029 A 
BRANCH  20  24
ATOM     24  C17 <0> d           1.952   1.035   1.575  0.00  0.00     0.417 C 
ATOM     25  F1  <0> d           1.766  -0.342   1.417  0.00  0.00    -0.166 F 
ATOM     26  F2  <0> d           3.231   1.388   1.132  0.00  0.00    -0.166 F 
ATOM     27  F3  <0> d           1.819   1.371   2.927  0.00  0.00    -0.166 F 
ENDBRANCH  20  24
ENDBRANCH  15  18
ENDBRANCH   1  14
BRANCH   6  28
ATOM     28  O3  <0> d          -0.095  13.605   0.699  0.00  0.00    -0.361 OA
ATOM     29  H11 <0> d           0.859  14.148   0.775  0.00  0.00     0.217 HD
ENDBRANCH   6  28
TORSDOF 4
