REMARK  3 active torsions:
REMARK  status: ('A' for Active; 'I' for Inactive)
REMARK    1  A    between atoms: N1_2  and  C2_3 
REMARK    2  A    between atoms: C2_3  and  C3_4 
REMARK    3  A    between atoms: N2_9  and  C8_10 
ROOT
ATOM      1  C3  <0> d          -1.319  -1.890   0.166  0.00  0.00     0.248 C 
ATOM      2  C4  <0> d          -2.701  -2.544   0.247  0.00  0.00     0.037 C 
ATOM      3  C5  <0> d          -2.553  -4.060   0.086  0.00  0.00     0.004 C 
ATOM      4  C6  <0> d          -1.612  -4.591   1.171  0.00  0.00     0.030 C 
ATOM      5  C7  <0> d          -0.262  -3.878   1.064  0.00  0.00     0.273 C 
ATOM      6  N2  <0> d          -0.458  -2.431   1.225  0.00  0.00     0.099 N 
ENDROOT
BRANCH   6   7
ATOM      7  C8  <0> d           0.831  -1.728   1.265  0.00  0.00     0.225 C 
ATOM      8  C12 <0> d           1.605  -2.167   2.505  0.00  0.00     0.051 C 
ATOM      9  C11 <0> d           2.819  -1.258   2.712  0.00  0.00     0.142 C 
ATOM     10  S1  <0> d           3.941  -1.444   1.295  0.00  0.00     0.144 S 
ATOM     11  C10 <0> d           2.833  -1.122  -0.109  0.00  0.00     0.142 C 
ATOM     12  O1  <0> d           4.914  -0.409   1.350  0.00  0.00    -0.228 OA
ATOM     13  O2  <0> d           4.372  -2.796   1.230  0.00  0.00    -0.228 OA
ATOM     14  C9  <0> d           1.618  -2.046  -0.003  0.00  0.00     0.051 C 
ENDBRANCH   6   7
BRANCH   1  15
ATOM     15  C2  <0> d          -1.460  -0.378   0.346  0.00  0.00     0.267 C 
BRANCH  15  16
ATOM     16  N1  <0> d          -1.947  -0.089   1.702  0.00  0.00    -0.077 N 
ATOM     17  C1  <0> d          -1.966   1.364   1.916  0.00  0.00     0.267 C 
ATOM     18  H5  <0> d          -1.335  -0.521   2.378  0.00  0.00     0.276 HD
ATOM     19  H25 <0> d          -2.880  -0.457   1.810  0.00  0.00     0.276 HD
ENDBRANCH  15  16
ENDBRANCH   1  15
TORSDOF 3
