REMARK  2 active torsions:
REMARK  status: ('A' for Active; 'I' for Inactive)
REMARK    1  A    between atoms: C13_18  and  O6_23 
REMARK    2  A    between atoms: C14_19  and  O5_21 
ROOT
ATOM      1  C1  <0> d          -0.018   1.513   0.010  0.00  0.00     0.024 C 
ATOM      2  C2  <0> d           0.002  -0.004   0.002  0.00  0.00     0.119 C 
ATOM      3  C3  <0> d           0.569  -0.522  -1.297  0.00  0.00     0.266 C 
ATOM      4  O1  <0> d          -0.140  -1.187  -2.023  0.00  0.00    -0.265 OA
ATOM      5  O2  <0> d           1.831  -0.270  -1.666  0.00  0.00    -0.313 OA
ATOM      6  C4  <0> d           2.045   0.419  -2.890  0.00  0.00     0.168 C 
ATOM      7  C5  <0> d           2.534  -0.540  -3.986  0.00  0.00     0.062 C 
ATOM      8  C6  <0> d           3.563   0.272  -4.784  0.00  0.00     0.238 C 
ATOM      9  N1  <0> d           3.744   1.569  -4.112  0.00  0.00    -0.057 N 
ATOM     10  C7  <0> d           3.147   1.477  -2.764  0.00  0.00     0.248 C 
ATOM     11  C8  <0> d           4.249   1.027  -1.843  0.00  0.00    -0.025 C 
ATOM     12  C9  <0> d           5.410   1.195  -2.432  0.00  0.00     0.008 C 
ATOM     13  C10 <0> d           5.161   1.787  -3.795  0.00  0.00     0.263 C 
ATOM     14  C11 <0> d           4.071   0.487  -0.446  0.00  0.00     0.215 C 
ATOM     15  O3  <0> d           2.770   0.823   0.019  0.00  0.00    -0.315 OA
ATOM     16  C12 <0> d           2.563   0.995   1.325  0.00  0.00     0.296 C 
ATOM     17  O4  <0> d           3.205   1.837   1.923  0.00  0.00    -0.262 OA
ATOM     18  C13 <0> d           1.560   0.168   2.075  0.00  0.00     0.173 C 
ATOM     19  C14 <0> d           0.665  -0.672   1.186  0.00  0.00     0.106 C 
ATOM     20  C15 <0> d          -0.446  -1.276   2.075  0.00  0.00     0.050 C 
ATOM     21  C16 <0> d           0.741   1.045   3.026  0.00  0.00     0.060 C 
ATOM     22  H24 <0> d           3.351   2.328  -4.641  0.00  0.00     0.281 HD
ENDROOT
BRANCH  18  23
ATOM     23  O6  <0> d           2.314  -0.747   2.909  0.00  0.00    -0.377 OA
ATOM     24  H23 <0> d           2.894  -0.310   3.547  0.00  0.00     0.211 HD
ENDBRANCH  18  23
BRANCH  19  25
ATOM     25  O5  <0> d           1.444  -1.788   0.698  0.00  0.00    -0.386 OA
ATOM     26  H19 <0> d           0.923  -2.457   0.233  0.00  0.00     0.210 HD
ENDBRANCH  19  25
TORSDOF 2
