REMARK  3 active torsions:
REMARK  status: ('A' for Active; 'I' for Inactive)
REMARK    1  A    between atoms: C9_11  and  C10_13 
REMARK       I    between atoms: C10_13  and  N3_15 
REMARK    2  A    between atoms: N3_15  and  C11_16 
REMARK    3  A    between atoms: C12_17  and  C20_26 
REMARK       I    between atoms: C20_26  and  N4_28 
ROOT
ATOM      1  C10 <0> d           0.939   3.499   0.011  0.00  0.00     0.277 C 
ATOM      2  O2  <0> d           1.940   4.190   0.006  0.00  0.00    -0.266 OA
ATOM      3  N3  <0> d          -0.279   4.076   0.026  0.00  0.00    -0.315 N 
ATOM      4  H8  <0> d          -1.077   3.525   0.030  0.00  0.00     0.170 HD
ENDROOT
BRANCH   3   5
ATOM      5  C11 <0> d          -0.391   5.457   0.034  0.00  0.00     0.093 A 
ATOM      6  S1  <0> d           0.875   6.639   0.027  0.00  0.00    -0.075 SA
ATOM      7  C14 <0> d          -0.110   8.113   0.044  0.00  0.00    -0.008 A 
ATOM      8  C13 <0> d          -1.388   7.676   0.058  0.00  0.00    -0.026 A 
ATOM      9  C15 <0> d           0.373   9.529   0.029  0.00  0.00     0.046 C 
ATOM     10  C12 <0> d          -1.543   6.228   0.043  0.00  0.00     0.073 A 
ATOM     11  C19 <0> d          -2.579   8.626   0.089  0.00  0.00     0.041 C 
ATOM     12  C18 <0> d          -2.196   9.961  -0.541  0.00  0.00     0.005 C 
ATOM     13  C17 <0> d          -1.633  10.908   0.516  0.00  0.00     0.001 C 
ATOM     14  C16 <0> d          -0.358  10.325   1.118  0.00  0.00     0.005 C 
BRANCH  10  15
ATOM     15  C20 <0> d          -2.871   5.607   0.041  0.00  0.00     0.252 C 
ATOM     16  O3  <0> d          -3.419   5.341   1.095  0.00  0.00    -0.268 OA
ATOM     17  N4  <0> d          -3.484   5.330  -1.127  0.00  0.00    -0.366 N 
ATOM     18  H19 <0> d          -3.046   5.542  -1.966  0.00  0.00     0.159 HD
ATOM     19  H20 <0> d          -4.363   4.919  -1.128  0.00  0.00     0.159 HD
ENDBRANCH  10  15
ENDBRANCH   3   5
BRANCH   1  20
ATOM     20  C9  <0> d           1.058   2.028   0.003  0.00  0.00     0.156 A 
ATOM     21  C8  <0> d           2.384   1.388  -0.013  0.00  0.00     0.016 A 
ATOM     22  C3  <0> d           2.424  -0.025  -0.022  0.00  0.00     0.046 A 
ATOM     23  C7  <0> d           3.570   2.114  -0.022  0.00  0.00     0.015 A 
ATOM     24  C2  <0> d           1.137  -0.734  -0.013  0.00  0.00     0.274 A 
ATOM     25  C4  <0> d           3.649  -0.685  -0.038  0.00  0.00     0.018 A 
ATOM     26  N1  <0> d           0.002  -0.004   0.002  0.00  0.00    -0.238 N 
ATOM     27  O1  <0> d           1.095  -1.950  -0.019  0.00  0.00    -0.266 OA
ATOM     28  C1  <0> d          -1.279  -0.715   0.011  0.00  0.00     0.183 C 
ATOM     29  N2  <0> d          -0.015   1.275   0.009  0.00  0.00    -0.164 NA
ATOM     30  C5  <0> d           4.814   0.053  -0.045  0.00  0.00     0.001 A 
ATOM     31  C6  <0> d           4.774   1.442  -0.037  0.00  0.00     0.001 A 
ENDBRANCH   1  20
TORSDOF 3
