REMARK  4 active torsions:
REMARK  status: ('A' for Active; 'I' for Inactive)
REMARK    1  A    between atoms: C3_3  and  C5_8 
REMARK    2  A    between atoms: C5_8  and  N3_9 
REMARK    3  A    between atoms: C12_17  and  C13_18 
REMARK    4  A    between atoms: C14_20  and  C15_23 
ROOT
ATOM      1  N3  <0> d          -3.632   1.773   0.437  0.00  0.00     0.098 N 
ATOM      2  C6  <0> d          -3.688   3.008  -0.361  0.00  0.00     0.278 C 
ATOM      3  C7  <0> d          -2.519   3.907   0.060  0.00  0.00     0.070 C 
ATOM      4  C8  <0> d          -1.238   3.119   0.034  0.00  0.00    -0.031 A 
ATOM      5  C9  <0> d          -1.229   1.741   0.017  0.00  0.00    -0.005 A 
ATOM      6  C10 <0> d          -0.013   1.076   0.008  0.00  0.00     0.126 A 
ATOM      7  N4  <0> d           1.126   1.739   0.001  0.00  0.00    -0.264 NA
ATOM      8  C11 <0> d           1.165   3.056   0.007  0.00  0.00     0.045 A 
ATOM      9  C12 <0> d          -0.015   3.797   0.024  0.00  0.00     0.045 A 
ATOM     10  C19 <0> d           2.494   3.766  -0.004  0.00  0.00     0.071 C 
ATOM     11  C20 <0> d          -2.503   0.940   0.011  0.00  0.00     0.313 C 
ENDROOT
BRANCH   9  12
ATOM     12  C13 <0> d           0.026   5.280   0.030  0.00  0.00     0.192 A 
ATOM     13  N6  <0> d          -1.006   6.084   0.046  0.00  0.00    -0.105 NA
ATOM     14  O1  <0> d          -0.641   7.240   0.049  0.00  0.00    -0.190 OA
ATOM     15  C14 <0> d           0.700   7.296   0.034  0.00  0.00     0.208 A 
ATOM     16  N5  <0> d           1.135   6.049   0.027  0.00  0.00    -0.199 NA
BRANCH  15  17
ATOM     17  C15 <0> d           1.529   8.517   0.031  0.00  0.00     0.043 A 
ATOM     18  C18 <0> d           2.890   8.588   0.022  0.00  0.00     0.157 A 
ATOM     19  O2  <0> d           3.246   9.879   0.020  0.00  0.00    -0.334 OA
ATOM     20  C17 <0> d           2.164  10.672   0.036  0.00  0.00     0.142 A 
ATOM     21  C16 <0> d           1.059   9.910   0.043  0.00  0.00     0.042 A 
ENDBRANCH  15  17
ENDBRANCH   9  12
BRANCH   1  22
ATOM     22  C5  <0> d          -4.897   1.031   0.348  0.00  0.00     0.331 C 
BRANCH  22  23
ATOM     23  C3  <0> d          -4.888  -0.098   1.346  0.00  0.00     0.061 A 
ATOM     24  C2  <0> d          -5.136  -0.005   2.666  0.00  0.00     0.030 A 
ATOM     25  C1  <0> d          -5.474   1.258   3.417  0.00  0.00     0.070 C 
ATOM     26  N2  <0> d          -5.032  -1.232   3.196  0.00  0.00    -0.354 N 
ATOM     27  C4  <0> d          -4.721  -2.082   2.255  0.00  0.00     0.180 A 
ATOM     28  H21 <0> d          -5.204  -1.384   4.272  0.00  0.00     0.166 HD
ATOM     29  N1  <0> d          -4.622  -1.415   1.085  0.00  0.00    -0.353 N 
ATOM     30  H1  <0> d          -4.384  -1.736   0.060  0.00  0.00     0.166 HD
ENDBRANCH  22  23
ENDBRANCH   1  22
TORSDOF 4
