REMARK  6 active torsions:
REMARK  status: ('A' for Active; 'I' for Inactive)
REMARK    1  A    between atoms: C5_5  and  N1_9 
REMARK       I    between atoms: N1_9  and  C9_10 
REMARK    2  A    between atoms: C9_10  and  C10_12 
REMARK    3  A    between atoms: C10_12  and  C11_13 
REMARK    4  A    between atoms: C10_12  and  N2_18 
REMARK    5  A    between atoms: C11_13  and  C12_14 
REMARK    6  A    between atoms: C12_14  and  O3_16 
ROOT
ATOM      1  N1  <0> d           3.671  -0.785  -0.013  0.00  0.00    -0.324 N 
ATOM      2  C9  <0> d           4.808  -0.123  -0.305  0.00  0.00     0.256 C 
ATOM      3  O1  <0> d           4.762   1.044  -0.635  0.00  0.00    -0.271 OA
ATOM      4  H10 <0> d           3.718  -1.814   0.373  0.00  0.00     0.169 HD
ENDROOT
BRANCH   2   5
ATOM      5  C10 <0> d           6.135  -0.831  -0.222  0.00  0.00     0.323 C 
BRANCH   5   6
ATOM      6  C11 <0> d           6.650  -0.780   1.218  0.00  0.00     0.157 C 
BRANCH   6   7
ATOM      7  C12 <0> d           7.915  -1.591   1.328  0.00  0.00     0.261 C 
ATOM      8  O2  <0> d           8.359  -2.153   0.355  0.00  0.00    -0.265 OA
BRANCH   7   9
ATOM      9  O3  <0> d           8.549  -1.691   2.507  0.00  0.00    -0.326 OA
ATOM     10  C13 <0> d           9.762  -2.489   2.539  0.00  0.00     0.213 C 
ENDBRANCH   7   9
ENDBRANCH   6   7
ENDBRANCH   5   6
BRANCH   5  11
ATOM     11  N2  <0> d           7.100  -0.169  -1.110  0.00  0.00     0.106 N 
ATOM     12  C17 <0> d           6.591  -0.109  -2.488  0.00  0.00     0.299 C 
ATOM     13  C16 <0> d           7.650   0.532  -3.390  0.00  0.00     0.198 C 
ATOM     14  O4  <0> d           7.983   1.826  -2.879  0.00  0.00    -0.388 OA
ATOM     15  C15 <0> d           8.483   1.804  -1.539  0.00  0.00     0.198 C 
ATOM     16  C14 <0> d           7.433   1.176  -0.619  0.00  0.00     0.299 C 
ENDBRANCH   5  11
ENDBRANCH   2   5
BRANCH   1  17
ATOM     17  C5  <0> d           2.431  -0.165  -0.201  0.00  0.00     0.046 A 
ATOM     18  C4  <0> d           2.153   1.040   0.431  0.00  0.00    -0.034 A 
ATOM     19  C3  <0> d           0.928   1.650   0.243  0.00  0.00     0.015 A 
ATOM     20  C18 <0> d           3.187   1.681   1.320  0.00  0.00     0.050 C 
ATOM     21  C2  <0> d          -0.021   1.062  -0.573  0.00  0.00    -0.061 A 
ATOM     22  C1  <0> d          -1.354   1.734  -0.781  0.00  0.00     0.048 C 
ATOM     23  C7  <0> d           0.253  -0.138  -1.204  0.00  0.00     0.015 A 
ATOM     24  C6  <0> d           1.476  -0.752  -1.020  0.00  0.00    -0.034 A 
ATOM     25  C8  <0> d           1.773  -2.060  -1.708  0.00  0.00     0.050 C 
ENDBRANCH   1  17
TORSDOF 6
