REMARK  5 active torsions:
REMARK  status: ('A' for Active; 'I' for Inactive)
REMARK    1  A    between atoms: C5_5  and  N2_12 
REMARK       I    between atoms: N2_12  and  C11_13 
REMARK    2  A    between atoms: C11_13  and  C12_15 
REMARK       I    between atoms: C12_15  and  N3_17 
REMARK    3  A    between atoms: N3_17  and  C13_18 
REMARK    4  A    between atoms: C13_18  and  C14_19 
REMARK    5  A    between atoms: C14_19  and  N4_21 
ROOT
ATOM      1  N2  <0> d           0.059  -4.194  -0.094  0.00  0.00    -0.318 N 
ATOM      2  C11 <0> d          -0.041  -4.832  -1.278  0.00  0.00     0.314 C 
ATOM      3  O1  <0> d          -0.055  -4.196  -2.311  0.00  0.00    -0.262 OA
ATOM      4  H10 <0> d           0.150  -4.704   0.726  0.00  0.00     0.169 HD
ENDROOT
BRANCH   2   5
ATOM      5  C12 <0> d          -0.134  -6.322  -1.317  0.00  0.00     0.309 C 
ATOM      6  O2  <0> d          -0.120  -6.958  -0.283  0.00  0.00    -0.262 OA
ATOM      7  N3  <0> d          -0.233  -6.960  -2.500  0.00  0.00    -0.351 N 
ATOM      8  H11 <0> d          -0.244  -6.452  -3.326  0.00  0.00     0.162 HD
BRANCH   7   9
ATOM      9  C13 <0> d          -0.324  -8.422  -2.538  0.00  0.00     0.158 C 
BRANCH   9  10
ATOM     10  C14 <0> d          -0.427  -8.888  -3.992  0.00  0.00     0.236 C 
ATOM     11  C15 <0> d          -0.397 -10.417  -4.040  0.00  0.00     0.044 C 
BRANCH  10  12
ATOM     12  N4  <0> d           0.704  -8.351  -4.760  0.00  0.00     0.098 N 
ATOM     13  C19 <0> d           0.518  -8.577  -6.200  0.00  0.00     0.299 C 
ATOM     14  C18 <0> d           1.687  -7.951  -6.965  0.00  0.00     0.198 C 
ATOM     15  O3  <0> d           2.915  -8.505  -6.485  0.00  0.00    -0.388 OA
ATOM     16  C17 <0> d           3.130  -8.303  -5.085  0.00  0.00     0.198 C 
ATOM     17  C16 <0> d           1.975  -8.933  -4.302  0.00  0.00     0.299 C 
ENDBRANCH  10  12
ENDBRANCH   9  10
ENDBRANCH   7   9
ENDBRANCH   2   5
BRANCH   1  18
ATOM     18  C5  <0> d           0.029  -2.802  -0.049  0.00  0.00     0.047 A 
ATOM     19  C4  <0> d          -0.589  -2.085  -1.053  0.00  0.00     0.031 A 
ATOM     20  C3  <0> d          -0.622  -0.696  -1.014  0.00  0.00     0.011 A 
ATOM     21  C2  <0> d          -0.049  -0.005   0.011  0.00  0.00    -0.032 A 
ATOM     22  C1  <0> d          -0.101   1.501   0.026  0.00  0.00     0.050 C 
ATOM     23  C7  <0> d           0.596  -0.696   1.051  0.00  0.00     0.074 A 
ATOM     24  C6  <0> d           0.631  -2.112   1.024  0.00  0.00     0.020 A 
ATOM     25  N1  <0> d           1.168  -0.036   2.064  0.00  0.00    -0.260 NA
ATOM     26  C10 <0> d           1.272  -2.799   2.068  0.00  0.00     0.017 A 
ATOM     27  C9  <0> d           1.846  -2.064   3.068  0.00  0.00     0.020 A 
ATOM     28  C8  <0> d           1.771  -0.674   3.038  0.00  0.00     0.117 A 
ENDBRANCH   1  18
TORSDOF 5
