REMARK  9 active torsions:
REMARK  status: ('A' for Active; 'I' for Inactive)
REMARK    1  A    between atoms: C2_2  and  C3_3 
REMARK    2  A    between atoms: C5_6  and  C6_8 
REMARK    3  A    between atoms: C6_8  and  N2_9 
REMARK       I    between atoms: N2_9  and  C8_11 
REMARK    4  A    between atoms: C8_11  and  C9_13 
REMARK    5  A    between atoms: C12_16  and  S2_19 
REMARK    6  A    between atoms: S2_19  and  N3_22 
REMARK    7  A    between atoms: N3_22  and  C15_23 
REMARK    8  A    between atoms: C15_23  and  C16_24 
REMARK    9  A    between atoms: C16_24  and  O4_26 
ROOT
ATOM      1  C9  <0> d          -5.556  -5.587   0.311  0.00  0.00     0.032 A 
ATOM      2  C10 <0> d          -5.350  -6.116   1.586  0.00  0.00     0.018 A 
ATOM      3  C11 <0> d          -5.415  -7.480   1.782  0.00  0.00     0.026 A 
ATOM      4  C12 <0> d          -5.684  -8.323   0.718  0.00  0.00     0.079 A 
ATOM      5  C13 <0> d          -5.888  -7.805  -0.548  0.00  0.00     0.026 A 
ATOM      6  C14 <0> d          -5.832  -6.442  -0.757  0.00  0.00     0.018 A 
ENDROOT
BRANCH   1   7
ATOM      7  C8  <0> d          -5.488  -4.126   0.093  0.00  0.00     0.253 C 
ATOM      8  N2  <0> d          -4.610  -3.381   0.794  0.00  0.00    -0.348 N 
ATOM      9  C7  <0> d          -3.637  -4.030   1.675  0.00  0.00     0.153 C 
ATOM     10  O1  <0> d          -6.223  -3.597  -0.717  0.00  0.00    -0.267 OA
BRANCH   8  11
ATOM     11  C6  <0> d          -4.629  -1.921   0.674  0.00  0.00     0.173 C 
BRANCH  11  12
ATOM     12  C5  <0> d          -3.712  -1.496  -0.444  0.00  0.00     0.020 A 
ATOM     13  C4  <0> d          -3.977  -1.319  -1.764  0.00  0.00     0.133 A 
ATOM     14  N1  <0> d          -2.974  -0.938  -2.529  0.00  0.00    -0.257 NA
ATOM     15  C3  <0> d          -1.777  -0.741  -2.035  0.00  0.00     0.074 A 
ATOM     16  S1  <0> d          -1.972  -1.095  -0.401  0.00  0.00    -0.076 SA
BRANCH  15  17
ATOM     17  C2  <0> d          -0.526  -0.308  -2.756  0.00  0.00     0.062 C 
ATOM     18  C1  <0> d          -0.430   1.218  -2.741  0.00  0.00     0.012 C 
ENDBRANCH  15  17
ENDBRANCH  11  12
ENDBRANCH   8  11
ENDBRANCH   1   7
BRANCH   4  19
ATOM     19  S2  <0> d          -5.765 -10.064   0.977  0.00  0.00     0.258 S 
ATOM     20  O2  <0> d          -5.490 -10.674  -0.276  0.00  0.00    -0.201 OA
ATOM     21  O3  <0> d          -4.998 -10.337   2.142  0.00  0.00    -0.201 OA
BRANCH  19  22
ATOM     22  N3  <0> d          -7.337 -10.431   1.348  0.00  0.00    -0.313 N 
ATOM     23  H17 <0> d          -7.559 -10.778   2.226  0.00  0.00     0.172 HD
BRANCH  22  24
ATOM     24  C15 <0> d          -8.390 -10.231   0.350  0.00  0.00     0.163 C 
BRANCH  24  25
ATOM     25  C16 <0> d          -9.653 -10.976   0.786  0.00  0.00     0.132 C 
ATOM     26  C17 <0> d         -10.713 -10.871  -0.313  0.00  0.00     0.041 C 
BRANCH  25  27
ATOM     27  O4  <0> d         -10.158 -10.395   1.990  0.00  0.00    -0.394 OA
ATOM     28  H23 <0> d         -10.392  -9.460   1.907  0.00  0.00     0.210 HD
ENDBRANCH  25  27
ENDBRANCH  24  25
ENDBRANCH  22  24
ENDBRANCH  19  22
ENDBRANCH   4  19
TORSDOF 9
