REMARK  7 active torsions:
REMARK  status: ('A' for Active; 'I' for Inactive)
REMARK    1  A    between atoms: C3_3  and  S1_9 
REMARK    2  A    between atoms: S1_9  and  N3_12 
REMARK    3  A    between atoms: N3_12  and  C6_13 
REMARK    4  A    between atoms: N3_12  and  C8_16 
REMARK    5  A    between atoms: C6_13  and  C7_14 
REMARK    6  A    between atoms: C7_14  and  O3_15 
REMARK    7  A    between atoms: C8_16  and  C9_17 
ROOT
ATOM      1  S1  <0> d          -0.211  -0.359  -2.629  0.00  0.00     0.265 S 
ATOM      2  O1  <0> d          -0.866  -1.487  -3.192  0.00  0.00    -0.200 OA
ATOM      3  O2  <0> d          -0.793   0.937  -2.625  0.00  0.00    -0.200 OA
ENDROOT
BRANCH   1   4
ATOM      4  C3  <0> d           0.130  -0.763  -0.948  0.00  0.00     0.129 A 
ATOM      5  C2  <0> d           0.191   0.110   0.084  0.00  0.00     0.049 A 
ATOM      6  C1  <0> d          -0.021   1.600   0.001  0.00  0.00     0.071 C 
ATOM      7  N2  <0> d           0.480  -0.591   1.200  0.00  0.00    -0.281 N 
ATOM      8  N1  <0> d           0.592  -1.941   0.844  0.00  0.00    -0.178 NA
ATOM      9  H1  <0> d           0.588  -0.226   2.092  0.00  0.00     0.189 HD
ATOM     10  C4  <0> d           0.386  -2.043  -0.444  0.00  0.00     0.076 A 
ATOM     11  C5  <0> d           0.417  -3.318  -1.247  0.00  0.00     0.074 C 
ENDBRANCH   1   4
BRANCH   1  12
ATOM     12  N3  <0> d           1.246  -0.222  -3.404  0.00  0.00    -0.296 N 
BRANCH  12  13
ATOM     13  C6  <0> d           2.005   1.028  -3.321  0.00  0.00     0.161 C 
BRANCH  13  14
ATOM     14  C7  <0> d           3.030   0.928  -2.190  0.00  0.00     0.184 C 
BRANCH  14  15
ATOM     15  O3  <0> d           3.994  -0.078  -2.508  0.00  0.00    -0.399 OA
ATOM     16  H12 <0> d           4.676  -0.197  -1.834  0.00  0.00     0.209 HD
ENDBRANCH  14  15
ENDBRANCH  13  14
ENDBRANCH  12  13
BRANCH  12  17
ATOM     17  C8  <0> d           1.775  -1.351  -4.174  0.00  0.00     0.252 C 
BRANCH  17  18
ATOM     18  C9  <0> d           1.416  -1.175  -5.650  0.00  0.00     0.404 C 
ATOM     19  F1  <0> d           2.089  -0.061  -6.165  0.00  0.00    -0.169 F 
ATOM     20  F2  <0> d           1.795  -2.318  -6.362  0.00  0.00    -0.169 F 
ATOM     21  F3  <0> d           0.036  -0.984  -5.775  0.00  0.00    -0.169 F 
ENDBRANCH  17  18
ENDBRANCH  12  17
ENDBRANCH   1  12
TORSDOF 7
