REMARK  6 active torsions:
REMARK  status: ('A' for Active; 'I' for Inactive)
REMARK    1  A    between atoms: C7_8  and  C10_13 
REMARK    2  A    between atoms: N2_9  and  C8_10 
REMARK    3  A    between atoms: C8_10  and  C9_11 
REMARK    4  A    between atoms: C9_11  and  O1_12 
REMARK    5  A    between atoms: C10_13  and  N3_14 
REMARK    6  A    between atoms: N3_14  and  C11_15 
ROOT
ATOM      1  C1  <0> d          -0.016   1.362   0.009  0.00  0.00     0.002 A 
ATOM      2  C2  <0> d           1.167   2.086   0.002  0.00  0.00     0.002 A 
ATOM      3  C3  <0> d           2.383   1.437  -0.013  0.00  0.00     0.032 A 
ATOM      4  C4  <0> d           2.422   0.049  -0.021  0.00  0.00     0.065 A 
ATOM      5  C5  <0> d           1.223  -0.684  -0.013  0.00  0.00     0.085 A 
ATOM      6  C6  <0> d           0.002  -0.004   0.002  0.00  0.00     0.034 A 
ATOM      7  N1  <0> d           1.563  -1.998  -0.024  0.00  0.00    -0.231 NA
ATOM      8  C7  <0> d           2.858  -2.115  -0.037  0.00  0.00     0.135 A 
ATOM      9  N2  <0> d           3.439  -0.885  -0.036  0.00  0.00    -0.330 N 
ENDROOT
BRANCH   8  10
ATOM     10  C10 <0> d           3.607  -3.423  -0.051  0.00  0.00     0.348 C 
BRANCH  10  11
ATOM     11  N3  <0> d           3.837  -3.841  -1.441  0.00  0.00     0.096 N 
ATOM     12  H13 <0> d           2.968  -3.900  -1.949  0.00  0.00     0.316 HD
BRANCH  11  13
ATOM     13  C11 <0> d           4.567  -5.115  -1.494  0.00  0.00     0.235 C 
ATOM     14  C14 <0> d           5.345  -5.206  -2.828  0.00  0.00     0.175 C 
ATOM     15  S1  <0> d           5.336  -7.011  -3.179  0.00  0.00     0.146 S 
ATOM     16  C13 <0> d           4.315  -7.592  -1.760  0.00  0.00     0.142 C 
ATOM     17  O2  <0> d           4.623  -7.242  -4.387  0.00  0.00    -0.228 OA
ATOM     18  O3  <0> d           6.656  -7.518  -3.038  0.00  0.00    -0.228 OA
ATOM     19  C12 <0> d           3.568  -6.279  -1.390  0.00  0.00     0.051 C 
ENDBRANCH  11  13
ENDBRANCH  10  11
ENDBRANCH   8  10
BRANCH   9  20
ATOM     20  C8  <0> d           4.876  -0.603  -0.050  0.00  0.00     0.156 C 
BRANCH  20  21
ATOM     21  C9  <0> d           5.391  -0.513   1.388  0.00  0.00     0.184 C 
BRANCH  21  22
ATOM     22  O1  <0> d           6.794  -0.237   1.375  0.00  0.00    -0.399 OA
ATOM     23  H10 <0> d           7.189  -0.167   2.255  0.00  0.00     0.209 HD
ENDBRANCH  21  22
ENDBRANCH  20  21
ENDBRANCH   9  20
TORSDOF 6
