REMARK  8 active torsions:
REMARK  status: ('A' for Active; 'I' for Inactive)
REMARK    1  A    between atoms: C3_3  and  C6_7 
REMARK    2  A    between atoms: C7_10  and  S1_13 
REMARK    3  A    between atoms: N3_11  and  N4_12 
REMARK    4  A    between atoms: S1_13  and  C8_14 
REMARK    5  A    between atoms: C8_14  and  C9_15 
REMARK       I    between atoms: C9_15  and  N5_17 
REMARK    6  A    between atoms: N5_17  and  C10_18 
REMARK    7  A    between atoms: C11_19  and  C18_27 
REMARK    8  A    between atoms: C18_27  and  C19_29 
ROOT
ATOM      1  C9  <0> d          -8.788   0.367   0.041  0.00  0.00     0.232 C 
ATOM      2  O2  <0> d          -9.184  -0.779   0.061  0.00  0.00    -0.272 OA
ATOM      3  N5  <0> d          -9.672   1.385   0.040  0.00  0.00    -0.320 N 
ATOM      4  H10 <0> d          -9.356   2.302   0.024  0.00  0.00     0.169 HD
ENDROOT
BRANCH   3   5
ATOM      5  C10 <0> d         -11.032   1.122   0.062  0.00  0.00     0.091 A 
ATOM      6  S2  <0> d         -11.797  -0.369  -0.044  0.00  0.00    -0.075 SA
ATOM      7  C13 <0> d         -13.485   0.148   0.062  0.00  0.00    -0.008 A 
ATOM      8  C12 <0> d         -13.426   1.492   0.172  0.00  0.00    -0.028 A 
ATOM      9  C14 <0> d         -14.720  -0.699   0.035  0.00  0.00     0.047 C 
ATOM     10  C11 <0> d         -12.076   2.031   0.172  0.00  0.00     0.056 A 
ATOM     11  C17 <0> d         -14.689   2.333   0.282  0.00  0.00     0.041 C 
ATOM     12  C16 <0> d         -15.877   1.499  -0.201  0.00  0.00     0.005 C 
ATOM     13  C15 <0> d         -15.899   0.152   0.527  0.00  0.00     0.005 C 
BRANCH  10  14
ATOM     14  C18 <0> d         -11.828   3.470   0.284  0.00  0.00     0.195 C 
ATOM     15  O3  <0> d         -11.838   4.168  -0.713  0.00  0.00    -0.287 OA
BRANCH  14  16
ATOM     16  C19 <0> d         -11.565   4.074   1.608  0.00  0.00     0.015 A 
ATOM     17  C24 <0> d         -11.433   5.458   1.734  0.00  0.00     0.015 A 
ATOM     18  C23 <0> d         -11.193   6.016   2.972  0.00  0.00     0.001 A 
ATOM     19  C22 <0> d         -11.072   5.205   4.087  0.00  0.00     0.000 A 
ATOM     20  C21 <0> d         -11.195   3.832   3.969  0.00  0.00     0.001 A 
ATOM     21  C20 <0> d         -11.441   3.262   2.737  0.00  0.00     0.015 A 
ENDBRANCH  14  16
ENDBRANCH  10  14
ENDBRANCH   3   5
BRANCH   1  22
ATOM     22  C8  <0> d          -7.309   0.654   0.016  0.00  0.00     0.185 C 
BRANCH  22  23
ATOM     23  S1  <0> d          -6.390  -0.910   0.023  0.00  0.00    -0.080 SA
BRANCH  23  24
ATOM     24  C7  <0> d          -4.700  -0.411  -0.007  0.00  0.00     0.206 A 
ATOM     25  N2  <0> d          -4.253   0.823  -0.029  0.00  0.00    -0.121 NA
ATOM     26  N1  <0> d          -2.967   0.826  -0.046  0.00  0.00    -0.127 NA
ATOM     27  C6  <0> d          -2.515  -0.406  -0.037  0.00  0.00     0.181 A 
ATOM     28  N3  <0> d          -3.611  -1.237  -0.017  0.00  0.00    -0.235 N 
BRANCH  27  29
ATOM     29  C3  <0> d          -1.096  -0.822  -0.051  0.00  0.00     0.044 A 
ATOM     30  C2  <0> d          -0.003  -0.012  -0.070  0.00  0.00     0.062 A 
ATOM     31  C1  <0> d          -0.023   1.495  -0.083  0.00  0.00     0.077 C 
ATOM     32  O1  <0> d           1.094  -0.782  -0.083  0.00  0.00    -0.326 OA
ATOM     33  C5  <0> d           0.764  -2.083  -0.063  0.00  0.00     0.143 A 
ATOM     34  C4  <0> d          -0.575  -2.195  -0.046  0.00  0.00     0.042 A 
ENDBRANCH  27  29
BRANCH  28  35
ATOM     35  N4  <0> d          -3.610  -2.603  -0.007  0.00  0.00    -0.239 NA
ATOM     36  H6  <0> d          -3.599  -2.958   0.937  0.00  0.00     0.143 HD
ATOM     37  H7  <0> d          -4.398  -2.969  -0.521  0.00  0.00     0.143 HD
ENDBRANCH  28  35
ENDBRANCH  23  24
ENDBRANCH  22  23
ENDBRANCH   1  22
TORSDOF 8
