REMARK  4 active torsions:
REMARK  status: ('A' for Active; 'I' for Inactive)
REMARK    1  A    between atoms: C2_2  and  C3_3 
REMARK    2  A    between atoms: C2_2  and  N1_6 
REMARK       I    between atoms: N1_6  and  C6_7 
REMARK    3  A    between atoms: C6_7  and  C7_9 
REMARK       I    between atoms: C7_9  and  N2_11 
REMARK    4  A    between atoms: N2_11  and  C8_12 
ROOT
ATOM      1  C7  <0> d          -3.454  -1.155  -1.133  0.00  0.00     0.314 C 
ATOM      2  O2  <0> d          -3.981  -1.461  -0.083  0.00  0.00    -0.262 OA
ATOM      3  N2  <0> d          -4.130  -1.291  -2.291  0.00  0.00    -0.318 N 
ATOM      4  H13 <0> d          -3.735  -0.986  -3.123  0.00  0.00     0.169 HD
ENDROOT
BRANCH   1   5
ATOM      5  C6  <0> d          -2.057  -0.628  -1.143  0.00  0.00     0.310 C 
ATOM      6  N1  <0> d          -1.380  -0.492   0.015  0.00  0.00    -0.348 N 
ATOM      7  H12 <0> d          -1.801  -0.737   0.854  0.00  0.00     0.163 HD
ATOM      8  O1  <0> d          -1.530  -0.323  -2.192  0.00  0.00    -0.262 OA
BRANCH   6   9
ATOM      9  C2  <0> d          -0.009   0.025   0.006  0.00  0.00     0.084 C 
ATOM     10  C1  <0> d          -0.041   1.554   0.015  0.00  0.00     0.032 C 
BRANCH   9  11
ATOM     11  C3  <0> d           0.733  -0.477   1.246  0.00  0.00    -0.000 C 
ATOM     12  C4  <0> d           2.165   0.062   1.237  0.00  0.00     0.011 C 
ATOM     13  C5  <0> d           0.012   0.010   2.505  0.00  0.00     0.011 C 
ENDBRANCH   9  11
ENDBRANCH   6   9
ENDBRANCH   1   5
BRANCH   3  14
ATOM     14  C8  <0> d          -5.402  -1.872  -2.294  0.00  0.00     0.053 A 
ATOM     15  C13 <0> d          -5.808  -2.652  -3.369  0.00  0.00     0.033 A 
ATOM     16  C12 <0> d          -7.064  -3.230  -3.365  0.00  0.00     0.022 A 
ATOM     17  I1  <0> d          -4.517  -2.961  -4.989  0.00  0.00    -0.042 I 
ATOM     18  C11 <0> d          -7.919  -3.023  -2.299  0.00  0.00     0.020 A 
ATOM     19  C10 <0> d          -7.519  -2.241  -1.229  0.00  0.00     0.013 A 
ATOM     20  C9  <0> d          -6.263  -1.665  -1.224  0.00  0.00     0.050 A 
ATOM     21 Br1  <0> d          -8.693  -1.961   0.227  0.00  0.00    -0.051 Br
ENDBRANCH   3  14
TORSDOF 4
