REMARK  7 active torsions:
REMARK  status: ('A' for Active; 'I' for Inactive)
REMARK    1  A    between atoms: C7_7  and  N2_12 
REMARK    2  A    between atoms: N2_12  and  C8_13 
REMARK    3  A    between atoms: C9_16  and  S3_18 
REMARK    4  A    between atoms: S3_18  and  C10_19 
REMARK    5  A    between atoms: C10_19  and  C11_20 
REMARK    6  A    between atoms: C11_20  and  C12_21 
REMARK       I    between atoms: C12_21  and  N5_23 
REMARK    7  A    between atoms: N5_23  and  C13_24 
ROOT
ATOM      1  C8  <0> d           0.738  -4.415  -0.027  0.00  0.00     0.196 A 
ATOM      2  N3  <0> d           1.902  -5.034  -0.043  0.00  0.00    -0.122 NA
ATOM      3  N4  <0> d           1.947  -6.409  -0.050  0.00  0.00    -0.133 NA
ATOM      4  C9  <0> d           0.823  -7.102  -0.040  0.00  0.00     0.160 A 
ATOM      5  S2  <0> d          -0.395  -5.796  -0.012  0.00  0.00    -0.022 SA
ENDROOT
BRANCH   4   6
ATOM      6  S3  <0> d           0.589  -8.848  -0.046  0.00  0.00    -0.101 SA
BRANCH   6   7
ATOM      7  C10 <0> d           2.274  -9.518  -0.068  0.00  0.00     0.091 C 
BRANCH   7   8
ATOM      8  C11 <0> d           2.216 -11.046  -0.075  0.00  0.00     0.113 C 
BRANCH   8   9
ATOM      9  C12 <0> d           3.616 -11.603  -0.093  0.00  0.00     0.222 C 
ATOM     10  O3  <0> d           4.568 -10.850  -0.101  0.00  0.00    -0.273 OA
ATOM     11  N5  <0> d           3.812 -12.936  -0.102  0.00  0.00    -0.327 N 
ATOM     12  H10 <0> d           3.055 -13.538  -0.029  0.00  0.00     0.169 HD
BRANCH  11  13
ATOM     13  C13 <0> d           5.108 -13.453  -0.217  0.00  0.00     0.034 A 
ATOM     14  C18 <0> d           6.176 -12.791   0.374  0.00  0.00     0.032 A 
ATOM     15  C17 <0> d           7.453 -13.306   0.265  0.00  0.00     0.044 A 
ATOM     16  C16 <0> d           7.670 -14.475  -0.444  0.00  0.00     0.116 A 
ATOM     17  C15 <0> d           6.608 -15.133  -1.040  0.00  0.00     0.044 A 
ATOM     18  F1  <0> d           8.921 -14.974  -0.554  0.00  0.00    -0.206 F 
ATOM     19  C14 <0> d           5.329 -14.625  -0.928  0.00  0.00     0.032 A 
ENDBRANCH  11  13
ENDBRANCH   8   9
ENDBRANCH   7   8
ENDBRANCH   6   7
ENDBRANCH   4   6
BRANCH   1  20
ATOM     20  N2  <0> d           0.465  -3.051  -0.018  0.00  0.00    -0.317 N 
ATOM     21  H5  <0> d          -0.454  -2.740  -0.002  0.00  0.00     0.169 HD
BRANCH  20  22
ATOM     22  C7  <0> d           1.501  -2.140  -0.033  0.00  0.00     0.154 A 
ATOM     23  C5  <0> d           1.222  -0.696  -0.024  0.00  0.00     0.034 A 
ATOM     24  C4  <0> d           2.396   0.069  -0.041  0.00  0.00     0.095 A 
ATOM     25  C6  <0> d           0.001  -0.004  -0.001  0.00  0.00     0.017 A 
ATOM     26  C3  <0> d           2.375   1.433  -0.036  0.00  0.00     0.026 A 
ATOM     27  S1  <0> d           3.670  -1.162  -0.066  0.00  0.00     0.286 S 
ATOM     28  C2  <0> d           1.158   2.101  -0.014  0.00  0.00     0.002 A 
ATOM     29  C1  <0> d          -0.018   1.372   0.003  0.00  0.00     0.001 A 
ATOM     30  N1  <0> d           2.730  -2.547  -0.055  0.00  0.00    -0.141 NA
ATOM     31  O1  <0> d           4.318  -1.089  -1.329  0.00  0.00    -0.198 OA
ATOM     32  O2  <0> d           4.360  -1.097   1.174  0.00  0.00    -0.198 OA
ENDBRANCH  20  22
ENDBRANCH   1  20
TORSDOF 7
