REMARK  4 active torsions:
REMARK  status: ('A' for Active; 'I' for Inactive)
REMARK    1  A    between atoms: C11_11  and  C12_13 
REMARK    2  A    between atoms: C12_13  and  C13_14 
REMARK    3  A    between atoms: C13_14  and  C14_15 
REMARK    4  A    between atoms: N2_20  and  C17_23 
ROOT
ATOM      1  C1  <0> d          -0.018   1.503   0.010  0.00  0.00     0.048 C 
ATOM      2  C2  <0> d           0.002  -0.004   0.002  0.00  0.00    -0.061 A 
ATOM      3  C3  <0> d           0.006  -0.691  -1.198  0.00  0.00     0.009 A 
ATOM      4  C4  <0> d           0.024  -2.070  -1.212  0.00  0.00     0.031 A 
ATOM      5  C5  <0> d           0.040  -2.783  -0.015  0.00  0.00     0.044 A 
ATOM      6  C6  <0> d           0.036  -2.081   1.186  0.00  0.00     0.018 A 
ATOM      7  C7  <0> d           0.023  -0.704   1.195  0.00  0.00     0.019 A 
ATOM      8  C8  <0> d           0.057  -3.122   2.269  0.00  0.00     0.279 A 
ATOM      9  C9  <0> d          -1.165  -3.000   3.188  0.00  0.00     0.147 A 
ATOM     10  C10 <0> d          -0.630  -3.365   4.601  0.00  0.00     0.128 A 
ATOM     11  C11 <0> d           0.859  -3.705   4.386  0.00  0.00     0.237 C 
ATOM     12  N1  <0> d           1.236  -2.971   3.141  0.00  0.00     0.113 N 
ATOM     13  C15 <0> d          -0.757  -2.069   5.368  0.00  0.00     0.234 A 
ATOM     14  O3  <0> d          -0.434  -1.905   6.525  0.00  0.00    -0.272 OA
ATOM     15  N2  <0> d          -1.281  -1.130   4.571  0.00  0.00    -0.283 N 
ATOM     16  C16 <0> d          -1.562  -1.546   3.315  0.00  0.00     0.235 A 
ATOM     17  O4  <0> d          -2.047  -0.873   2.431  0.00  0.00    -0.272 OA
ATOM     18  C23 <0> d           0.072  -4.440   1.545  0.00  0.00     0.267 A 
ATOM     19  O5  <0> d           0.091  -5.543   2.049  0.00  0.00    -0.270 OA
ATOM     20  N3  <0> d           0.060  -4.157   0.228  0.00  0.00    -0.324 N 
ATOM     21  H10 <0> d           2.054  -3.383   2.717  0.00  0.00     0.318 HD
ATOM     22  H26 <0> d           0.064  -4.831  -0.470  0.00  0.00     0.169 HD
ENDROOT
BRANCH  11  23
ATOM     23  C12 <0> d           1.696  -3.198   5.562  0.00  0.00     0.047 C 
BRANCH  23  24
ATOM     24  C13 <0> d           3.147  -3.653   5.389  0.00  0.00     0.115 C 
BRANCH  24  25
ATOM     25  C14 <0> d           3.971  -3.153   6.547  0.00  0.00     0.172 C 
ATOM     26  O1  <0> d           3.447  -2.494   7.429  0.00  0.00    -0.648 OA
ATOM     27  O2  <0> d           5.162  -3.408   6.602  0.00  0.00    -0.648 OA
ENDBRANCH  24  25
ENDBRANCH  23  24
ENDBRANCH  11  23
BRANCH  15  28
ATOM     28  C17 <0> d          -1.536   0.240   5.023  0.00  0.00     0.096 C 
ATOM     29  C22 <0> d          -2.519   0.215   6.195  0.00  0.00     0.026 C 
ATOM     30  C21 <0> d          -2.786   1.646   6.667  0.00  0.00     0.002 C 
ATOM     31  C20 <0> d          -1.472   2.288   7.116  0.00  0.00     0.000 C 
ATOM     32  C19 <0> d          -0.490   2.313   5.943  0.00  0.00     0.002 C 
ATOM     33  C18 <0> d          -0.223   0.883   5.472  0.00  0.00     0.026 C 
ENDBRANCH  15  28
TORSDOF 4
