REMARK  7 active torsions:
REMARK  status: ('A' for Active; 'I' for Inactive)
REMARK    1  A    between atoms: C2_2  and  N3_25 
REMARK    2  A    between atoms: C3_3  and  N3_25 
REMARK    3  A    between atoms: C5_5  and  C6_6 
REMARK    4  A    between atoms: C5_5  and  N3_25 
REMARK    5  A    between atoms: C6_6  and  N1_7 
REMARK       I    between atoms: N1_7  and  C7_8 
REMARK    6  A    between atoms: C7_8  and  C8_10 
REMARK    7  A    between atoms: C16_20  and  O3_21 
ROOT
ATOM      1  C8  <0> d          -1.835   7.009  -0.210  0.00  0.00     0.133 A 
ATOM      2  C9  <0> d          -1.517   5.629  -0.341  0.00  0.00     0.204 A 
ATOM      3  O2  <0> d          -2.394   4.783  -0.380  0.00  0.00    -0.286 OA
ATOM      4  C10 <0> d          -0.094   5.254  -0.428  0.00  0.00     0.042 A 
ATOM      5  C11 <0> d           0.292   3.920  -0.564  0.00  0.00     0.018 A 
ATOM      6  C12 <0> d           1.631   3.603  -0.639  0.00  0.00     0.001 A 
ATOM      7  C13 <0> d           2.591   4.602  -0.590  0.00  0.00     0.002 A 
ATOM      8  C14 <0> d           2.224   5.924  -0.461  0.00  0.00     0.031 A 
ATOM      9  C15 <0> d           0.878   6.266  -0.379  0.00  0.00     0.050 A 
ATOM     10  N2  <0> d           0.494   7.587  -0.251  0.00  0.00    -0.330 N 
ATOM     11  C16 <0> d          -0.807   7.948  -0.170  0.00  0.00     0.162 A 
ATOM     12  C17 <0> d           1.525   8.626  -0.201  0.00  0.00     0.158 C 
ENDROOT
BRANCH   1  13
ATOM     13  C7  <0> d          -3.234   7.441  -0.119  0.00  0.00     0.260 C 
ATOM     14  N1  <0> d          -3.831   7.539   1.085  0.00  0.00    -0.355 N 
ATOM     15  H15 <0> d          -3.336   7.325   1.891  0.00  0.00     0.162 HD
ATOM     16  O1  <0> d          -3.855   7.710  -1.130  0.00  0.00    -0.267 OA
BRANCH  14  17
ATOM     17  C6  <0> d          -5.228   7.970   1.176  0.00  0.00     0.150 C 
BRANCH  17  18
ATOM     18  C5  <0> d          -5.659   7.997   2.644  0.00  0.00     0.254 C 
BRANCH  18  19
ATOM     19  N3  <0> d          -7.063   8.454   2.721  0.00  0.00    -0.070 N 
ATOM     20  H24 <0> d          -7.157   9.331   2.196  0.00  0.00     0.279 HD
BRANCH  19  21
ATOM     21  C2  <0> d          -7.957   7.439   2.126  0.00  0.00     0.230 C 
ATOM     22  C1  <0> d          -7.826   6.107   2.868  0.00  0.00     0.034 C 
ENDBRANCH  19  21
BRANCH  19  23
ATOM     23  C3  <0> d          -7.439   8.695   4.130  0.00  0.00     0.230 C 
ATOM     24  C4  <0> d          -8.739   9.500   4.160  0.00  0.00     0.034 C 
ENDBRANCH  19  23
ENDBRANCH  18  19
ENDBRANCH  17  18
ENDBRANCH  14  17
ENDBRANCH   1  13
BRANCH  11  25
ATOM     25  O3  <0> d          -1.117   9.253  -0.045  0.00  0.00    -0.345 OA
ATOM     26  H20 <0> d          -1.251   9.752  -0.863  0.00  0.00     0.219 HD
ENDBRANCH  11  25
TORSDOF 7
