REMARK  4 active torsions:
REMARK  status: ('A' for Active; 'I' for Inactive)
REMARK    1  A    between atoms: C3_5  and  C4_6 
REMARK    2  A    between atoms: N2_7  and  N3_8 
REMARK       I    between atoms: N3_8  and  C5_9 
REMARK    3  A    between atoms: C5_9  and  C6_11 
REMARK    4  A    between atoms: C11_16  and  O3_17 
ROOT
ATOM      1  C4  <0> d          -2.505   1.294   0.021  0.00  0.00     0.130 C 
ATOM      2  N2  <0> d          -3.651   1.996   0.132  0.00  0.00    -0.308 N 
ATOM      3  H5  <0> d          -3.624   3.096   0.138  0.00  0.00     0.186 HD
ENDROOT
BRANCH   2   4
ATOM      4  N3  <0> d          -4.876   1.325   0.240  0.00  0.00    -0.266 N 
ATOM      5  C5  <0> d          -6.021   2.026   0.351  0.00  0.00     0.272 C 
ATOM      6  O2  <0> d          -5.992   3.241   0.357  0.00  0.00    -0.266 OA
ATOM      7  H6  <0> d          -4.902   0.225   0.235  0.00  0.00     0.190 HD
BRANCH   5   8
ATOM      8  C6  <0> d          -7.311   1.319   0.465  0.00  0.00     0.066 A 
ATOM      9  C11 <0> d          -8.505   2.044   0.580  0.00  0.00     0.081 A 
ATOM     10  C10 <0> d          -9.712   1.369   0.686  0.00  0.00     0.037 A 
ATOM     11  C9  <0> d          -9.736  -0.011   0.677  0.00  0.00     0.003 A 
ATOM     12  C8  <0> d          -8.558  -0.732   0.563  0.00  0.00     0.001 A 
ATOM     13  C7  <0> d          -7.350  -0.078   0.452  0.00  0.00     0.020 A 
BRANCH   9  14
ATOM     14  O3  <0> d          -8.480   3.401   0.588  0.00  0.00    -0.360 OA
ATOM     15  H11 <0> d          -9.418   3.967   0.679  0.00  0.00     0.217 HD
ENDBRANCH   9  14
ENDBRANCH   5   8
ENDBRANCH   2   4
BRANCH   1  16
ATOM     16  C3  <0> d          -1.289   1.952   0.021  0.00  0.00     0.117 A 
ATOM     17  C2  <0> d          -0.015   1.212   0.038  0.00  0.00     0.266 A 
ATOM     18  N1  <0> d           1.134   1.920   0.032  0.00  0.00    -0.294 N 
ATOM     19  O1  <0> d           0.002  -0.004   0.052  0.00  0.00    -0.267 OA
ATOM     20  C1  <0> d           2.414   1.208   0.043  0.00  0.00     0.162 C 
ATOM     21  C13 <0> d           1.130   3.260   0.017  0.00  0.00     0.185 A 
ATOM     22  N4  <0> d           0.010   3.997   0.006  0.00  0.00    -0.294 N 
ATOM     23  S1  <0> d           2.636   4.075   0.010  0.00  0.00    -0.040 SA
ATOM     24  C12 <0> d          -1.211   3.424   0.010  0.00  0.00     0.266 A 
ATOM     25  C14 <0> d           0.115   5.458  -0.012  0.00  0.00     0.162 C 
ATOM     26  O4  <0> d          -2.220   4.103   0.000  0.00  0.00    -0.267 OA
ENDBRANCH   1  16
TORSDOF 4
