REMARK  4 active torsions:
REMARK  status: ('A' for Active; 'I' for Inactive)
REMARK    1  A    between atoms: C4_6  and  C5_7 
REMARK       I    between atoms: C5_7  and  N3_9 
REMARK    2  A    between atoms: C7_11  and  C14_19 
REMARK       I    between atoms: C14_19  and  N5_21 
REMARK    3  A    between atoms: N5_21  and  C15_22 
REMARK    4  A    between atoms: C15_22  and  C17_25 
ROOT
ATOM      1  C15 <0> d          -5.413   3.049   1.682  0.00  0.00     0.225 C 
ATOM      2  C16 <0> d          -6.155   2.361   2.751  0.00  0.00     0.089 C 
ATOM      3  N6  <0> d          -6.727   1.830   3.577  0.00  0.00    -0.195 NA
ENDROOT
BRANCH   1   4
ATOM      4  N5  <0> d          -4.076   3.402   2.164  0.00  0.00    -0.340 N 
ATOM      5  C14 <0> d          -3.076   2.500   2.099  0.00  0.00     0.225 C 
ATOM      6  O2  <0> d          -3.284   1.396   1.642  0.00  0.00    -0.273 OA
ATOM      7  H21 <0> d          -3.909   4.285   2.530  0.00  0.00     0.164 HD
BRANCH   5   8
ATOM      8  C7  <0> d          -1.700   2.863   2.595  0.00  0.00     0.106 C 
ATOM      9  C6  <0> d          -0.628   2.016   1.875  0.00  0.00     0.141 C 
ATOM     10  N3  <0> d          -0.379   0.874   2.785  0.00  0.00    -0.345 N 
ATOM     11  C5  <0> d          -0.171  -0.416   2.454  0.00  0.00     0.272 C 
ATOM     12  C9  <0> d          -0.417   1.469   4.142  0.00  0.00     0.136 C 
ATOM     13  O1  <0> d          -0.105  -1.264   3.324  0.00  0.00    -0.266 OA
ATOM     14  C8  <0> d          -1.552   2.502   4.082  0.00  0.00    -0.007 C 
ATOM     15  C13 <0> d          -1.183   3.740   4.894  0.00  0.00     0.039 C 
ATOM     16  C10 <0> d          -2.845   1.887   4.609  0.00  0.00     0.039 C 
ATOM     17  C12 <0> d          -1.098   3.367   6.376  0.00  0.00     0.233 C 
ATOM     18  N4  <0> d          -2.389   2.831   6.823  0.00  0.00    -0.075 N 
ATOM     19  C11 <0> d          -2.692   1.589   6.103  0.00  0.00     0.233 C 
ATOM     20  H16 <0> d          -3.114   3.509   6.641  0.00  0.00     0.277 HD
ATOM     21  H27 <0> d          -2.349   2.643   7.814  0.00  0.00     0.277 HD
BRANCH  11  22
ATOM     22  C4  <0> d          -0.023  -0.797   1.045  0.00  0.00     0.121 A 
ATOM     23  N1  <0> d           0.044  -2.080   0.536  0.00  0.00    -0.340 N 
ATOM     24  C1  <0> d          -0.019  -3.326   1.304  0.00  0.00     0.157 C 
ATOM     25  C2  <0> d           0.173  -1.970  -0.798  0.00  0.00     0.209 A 
ATOM     26  N2  <0> d           0.192  -0.702  -1.124  0.00  0.00    -0.253 NA
ATOM     27  C3  <0> d           0.078   0.046  -0.026  0.00  0.00     0.153 A 
ENDBRANCH  11  22
ENDBRANCH   5   8
ENDBRANCH   1   4
BRANCH   1  28
ATOM     28  C17 <0> d          -6.151   4.301   1.285  0.00  0.00    -0.022 A 
ATOM     29  C22 <0> d          -6.944   4.307   0.152  0.00  0.00     0.010 A 
ATOM     30  C21 <0> d          -7.624   5.455  -0.209  0.00  0.00     0.001 A 
ATOM     31  C20 <0> d          -7.504   6.599   0.556  0.00  0.00     0.000 A 
ATOM     32  C19 <0> d          -6.708   6.595   1.686  0.00  0.00     0.001 A 
ATOM     33  C18 <0> d          -6.031   5.446   2.050  0.00  0.00     0.010 A 
ENDBRANCH   1  28
TORSDOF 4
