REMARK  4 active torsions:
REMARK  status: ('A' for Active; 'I' for Inactive)
REMARK    1  A    between atoms: C3_3  and  O3_19 
REMARK    2  A    between atoms: C6_6  and  C7_7 
REMARK       I    between atoms: C7_7  and  N1_9 
REMARK    3  A    between atoms: C8_10  and  C11_14 
REMARK    4  A    between atoms: C8_10  and  O2_18 
ROOT
ATOM      1  C7  <0> d           2.417   3.935  -0.000  0.00  0.00     0.277 C 
ATOM      2  O1  <0> d           3.479   3.346   0.061  0.00  0.00    -0.266 OA
ATOM      3  N1  <0> d           2.397   5.279  -0.095  0.00  0.00    -0.189 N 
ATOM      4  C8  <0> d           3.579   6.149  -0.213  0.00  0.00     0.261 A 
ATOM      5  C9  <0> d           2.970   7.564  -0.287  0.00  0.00     0.121 A 
ATOM      6  C10 <0> d           1.481   7.322  -0.191  0.00  0.00     0.117 A 
ATOM      7  N2  <0> d           1.254   6.077  -0.091  0.00  0.00    -0.183 NA
ENDROOT
BRANCH   1   8
ATOM      8  C6  <0> d           1.150   3.178   0.029  0.00  0.00     0.034 A 
ATOM      9  C1  <0> d           1.168   1.781   0.002  0.00  0.00     0.020 A 
ATOM     10  C2  <0> d          -0.016   1.079   0.029  0.00  0.00     0.037 A 
ATOM     11  C3  <0> d          -1.228   1.758   0.077  0.00  0.00     0.065 A 
ATOM     12  C4  <0> d          -1.250   3.147   0.110  0.00  0.00     0.037 A 
ATOM     13  C5  <0> d          -0.070   3.857   0.083  0.00  0.00     0.020 A 
BRANCH  11  14
ATOM     14  O3  <0> d          -2.393   1.062   0.098  0.00  0.00    -0.361 OA
ATOM     15  H9  <0> d          -2.705   0.844   0.987  0.00  0.00     0.217 HD
ENDBRANCH  11  14
ENDBRANCH   1   8
BRANCH   4  16
ATOM     16  C11 <0> d           4.477   6.009   1.018  0.00  0.00     0.440 C 
ATOM     17  F1  <0> d           4.929   4.689   1.117  0.00  0.00    -0.166 F 
ATOM     18  F2  <0> d           5.574   6.869   0.895  0.00  0.00    -0.166 F 
ATOM     19  F3  <0> d           3.750   6.341   2.166  0.00  0.00    -0.166 F 
ENDBRANCH   4  16
BRANCH   4  20
ATOM     20  O2  <0> d           4.306   5.852  -1.406  0.00  0.00    -0.362 OA
ATOM     21  H8  <0> d           4.648   4.949  -1.444  0.00  0.00     0.213 HD
ENDBRANCH   4  20
TORSDOF 4
