REMARK  5 active torsions:
REMARK  status: ('A' for Active; 'I' for Inactive)
REMARK    1  A    between atoms: S1_2  and  N1_5 
REMARK    2  A    between atoms: N1_5  and  C2_6 
REMARK    3  A    between atoms: C2_6  and  C3_7 
REMARK    4  A    between atoms: C3_7  and  C4_8 
REMARK    5  A    between atoms: C4_8  and  N2_9 
ROOT
ATOM      1  N2  <0> d           4.828  -1.247  -4.031  0.00  0.00    -0.268 N 
ATOM      2  C5  <0> d           5.401  -2.463  -3.913  0.00  0.00     0.256 A 
ATOM      3  O3  <0> d           5.544  -3.112  -2.898  0.00  0.00    -0.270 OA
ATOM      4  C6  <0> d           5.825  -2.846  -5.311  0.00  0.00     0.120 A 
ATOM      5  C7  <0> d           5.110  -4.119  -5.757  0.00  0.00     0.046 C 
ATOM      6  C8  <0> d           5.350  -4.311  -7.254  0.00  0.00     0.042 C 
ATOM      7  C9  <0> d           6.817  -4.200  -7.576  0.00  0.00    -0.052 A 
ATOM      8  C10 <0> d           7.251  -4.718  -8.791  0.00  0.00     0.007 A 
ATOM      9  C11 <0> d           8.580  -4.644  -9.150  0.00  0.00     0.001 A 
ATOM     10  C12 <0> d           9.491  -4.049  -8.296  0.00  0.00     0.001 A 
ATOM     11  C13 <0> d           9.063  -3.536  -7.089  0.00  0.00     0.007 A 
ATOM     12  C14 <0> d           7.725  -3.614  -6.724  0.00  0.00    -0.049 A 
ATOM     13  C15 <0> d           7.330  -3.048  -5.383  0.00  0.00     0.080 C 
ATOM     14  N3  <0> d           5.410  -1.706  -6.137  0.00  0.00    -0.324 N 
ATOM     15  C16 <0> d           4.830  -0.822  -5.301  0.00  0.00     0.326 A 
ATOM     16  O4  <0> d           4.366   0.242  -5.658  0.00  0.00    -0.247 OA
ATOM     17  H21 <0> d           5.526  -1.609  -7.095  0.00  0.00     0.165 HD
ENDROOT
BRANCH   1  18
ATOM     18  C4  <0> d           4.268  -0.488  -2.910  0.00  0.00     0.138 C 
BRANCH  18  19
ATOM     19  C3  <0> d           2.792  -0.854  -2.733  0.00  0.00     0.041 C 
BRANCH  19  20
ATOM     20  C2  <0> d           2.207  -0.061  -1.563  0.00  0.00     0.133 C 
BRANCH  20  21
ATOM     21  N1  <0> d           0.795  -0.411  -1.394  0.00  0.00    -0.320 N 
ATOM     22  H4  <0> d           0.324  -0.881  -2.099  0.00  0.00     0.172 HD
BRANCH  21  23
ATOM     23  S1  <0> d           0.002  -0.004   0.002  0.00  0.00     0.222 S 
ATOM     24  C1  <0> d          -0.022   1.810   0.012  0.00  0.00     0.185 C 
ATOM     25  O1  <0> d           0.835  -0.488   1.046  0.00  0.00    -0.206 OA
ATOM     26  O2  <0> d          -1.315  -0.510  -0.168  0.00  0.00    -0.206 OA
ENDBRANCH  21  23
ENDBRANCH  20  21
ENDBRANCH  19  20
ENDBRANCH  18  19
ENDBRANCH   1  18
TORSDOF 5
