REMARK  5 active torsions:
REMARK  status: ('A' for Active; 'I' for Inactive)
REMARK    1  A    between atoms: C2_2  and  C5_5 
REMARK    2  A    between atoms: C15_16  and  C17_19 
REMARK    3  A    between atoms: C16_17  and  O2_18 
REMARK    4  A    between atoms: N1_20  and  C18_21 
REMARK    5  A    between atoms: C18_21  and  C19_22 
ROOT
ATOM      1  C5  <0> d           0.695  -0.490  -1.245  0.00  0.00    -0.014 A 
ATOM      2  C6  <0> d           1.214   0.425  -2.137  0.00  0.00     0.049 A 
ATOM      3  C7  <0> d           1.881  -0.003  -3.278  0.00  0.00     0.088 A 
ATOM      4  C8  <0> d           2.026  -1.378  -3.521  0.00  0.00     0.021 A 
ATOM      5  C9  <0> d           2.758  -1.474  -4.777  0.00  0.00    -0.014 A 
ATOM      6  C10 <0> d           2.993  -0.213  -5.185  0.00  0.00     0.061 A 
ATOM      7  O1  <0> d           2.475   0.652  -4.300  0.00  0.00    -0.314 OA
ATOM      8  C11 <0> d           3.735   0.128  -6.457  0.00  0.00     0.066 C 
ATOM      9  C12 <0> d           4.500  -1.116  -6.923  0.00  0.00     0.007 C 
ATOM     10  C13 <0> d           3.553  -2.319  -6.953  0.00  0.00     0.005 C 
ATOM     11  C14 <0> d           3.189  -2.713  -5.516  0.00  0.00     0.042 C 
ATOM     12  C15 <0> d           1.496  -2.313  -2.609  0.00  0.00     0.026 A 
ATOM     13  C16 <0> d           0.833  -1.854  -1.466  0.00  0.00     0.085 A 
ENDROOT
BRANCH  12  14
ATOM     14  C17 <0> d           1.642  -3.755  -2.854  0.00  0.00     0.098 C 
ATOM     15  N1  <0> d           1.252  -4.607  -1.959  0.00  0.00    -0.394 N 
ATOM     16  H27 <0> d           0.798  -4.298  -1.160  0.00  0.00     0.159 HD
BRANCH  15  17
ATOM     17  C18 <0> d           1.498  -6.038  -2.154  0.00  0.00     0.157 C 
BRANCH  17  18
ATOM     18  C19 <0> d           2.449  -6.534  -1.096  0.00  0.00    -0.038 A 
ATOM     19  C23 <0> d           1.974  -7.022   0.112  0.00  0.00     0.028 A 
ATOM     20  C22 <0> d           2.877  -7.474   1.057  0.00  0.00     0.116 A 
ATOM     21  N2  <0> d           4.174  -7.433   0.824  0.00  0.00    -0.273 NA
ATOM     22  C21 <0> d           4.661  -6.970  -0.310  0.00  0.00     0.116 A 
ATOM     23  C20 <0> d           3.819  -6.507  -1.304  0.00  0.00     0.028 A 
ENDBRANCH  17  18
ENDBRANCH  15  17
ENDBRANCH  12  14
BRANCH  13  24
ATOM     24  O2  <0> d           0.321  -2.741  -0.575  0.00  0.00    -0.359 OA
ATOM     25  H19 <0> d          -0.591  -3.004  -0.762  0.00  0.00     0.217 HD
ENDBRANCH  13  24
BRANCH   1  26
ATOM     26  C2  <0> d          -0.025  -0.004  -0.014  0.00  0.00    -0.021 C 
ATOM     27  C1  <0> d          -0.042   1.526  -0.004  0.00  0.00     0.019 C 
ATOM     28  C3  <0> d           0.697  -0.515   1.234  0.00  0.00     0.019 C 
ATOM     29  C4  <0> d          -1.462  -0.530  -0.022  0.00  0.00     0.019 C 
ENDBRANCH   1  26
TORSDOF 5
