REMARK  5 active torsions:
REMARK  status: ('A' for Active; 'I' for Inactive)
REMARK    1  A    between atoms: C2_2  and  C3_3 
REMARK    2  A    between atoms: C3_3  and  N1_4 
REMARK    3  A    between atoms: C8_15  and  N5_16 
REMARK    4  A    between atoms: N5_16  and  N6_17 
REMARK    5  A    between atoms: N6_17  and  C9_18 
ROOT
ATOM      1  N1  <0> d          -1.830  -1.990   0.040  0.00  0.00    -0.171 N 
ATOM      2  C4  <0> d          -1.718  -2.782  -1.095  0.00  0.00     0.166 A 
ATOM      3  C5  <0> d          -1.836  -2.544  -2.476  0.00  0.00     0.280 A 
ATOM      4  O1  <0> d          -2.091  -1.426  -2.889  0.00  0.00    -0.265 OA
ATOM      5  N2  <0> d          -1.663  -3.566  -3.339  0.00  0.00    -0.273 N 
ATOM      6  H1  <0> d          -1.743  -3.405  -4.293  0.00  0.00     0.173 HD
ATOM      7  C6  <0> d          -1.380  -4.804  -2.898  0.00  0.00     0.330 A 
ATOM      8  O2  <0> d          -1.231  -5.701  -3.705  0.00  0.00    -0.246 OA
ATOM      9  N3  <0> d          -1.258  -5.075  -1.585  0.00  0.00    -0.286 N 
ATOM     10  C7  <0> d          -1.426  -4.066  -0.650  0.00  0.00     0.186 A 
ATOM     11  N4  <0> d          -1.369  -4.027   0.682  0.00  0.00    -0.042 NA
ATOM     12  C8  <0> d          -1.601  -2.801   1.106  0.00  0.00     0.724 A 
ATOM     13  C17 <0> d          -0.950  -6.438  -1.145  0.00  0.00     0.163 C 
ENDROOT
BRANCH  12  14
ATOM     14  N5  <0> d          -1.612  -2.405   2.424  0.00  0.00    -0.129 N 
ATOM     15  H9  <0> d          -1.795  -1.479   2.650  0.00  0.00     0.205 HD
BRANCH  14  16
ATOM     16  N6  <0> d          -1.361  -3.337   3.438  0.00  0.00    -0.280 N 
ATOM     17  H10 <0> d          -1.265  -4.278   3.220  0.00  0.00     0.188 HD
BRANCH  16  18
ATOM     18  C9  <0> d          -1.252  -2.932   4.706  0.00  0.00     0.129 A 
ATOM     19  C16 <0> d          -1.114  -3.791   5.934  0.00  0.00     0.275 A 
ATOM     20  N7  <0> d          -1.033  -2.986   6.977  0.00  0.00    -0.321 N 
ATOM     21  O3  <0> d          -1.079  -5.008   5.960  0.00  0.00    -0.266 OA
ATOM     22  C15 <0> d          -1.111  -1.677   6.598  0.00  0.00     0.048 A 
ATOM     23  H17 <0> d          -0.936  -3.286   7.894  0.00  0.00     0.169 HD
ATOM     24  C10 <0> d          -1.248  -1.600   5.188  0.00  0.00     0.026 A 
ATOM     25  C14 <0> d          -1.077  -0.498   7.337  0.00  0.00     0.032 A 
ATOM     26  C11 <0> d          -1.347  -0.353   4.559  0.00  0.00     0.035 A 
ATOM     27  C12 <0> d          -1.312   0.801   5.319  0.00  0.00     0.011 A 
ATOM     28  C13 <0> d          -1.177   0.727   6.697  0.00  0.00     0.021 A 
ATOM     29 Br1  <0> d          -1.445   2.488   4.475  0.00  0.00    -0.051 Br
ENDBRANCH  16  18
ENDBRANCH  14  16
ENDBRANCH  12  14
BRANCH   1  30
ATOM     30  C3  <0> d          -2.130  -0.557   0.080  0.00  0.00     0.148 C 
BRANCH  30  31
ATOM     31  C2  <0> d          -0.825   0.240   0.019  0.00  0.00     0.016 C 
ATOM     32  C1  <0> d          -1.139   1.736   0.061  0.00  0.00     0.006 C 
ENDBRANCH  30  31
ENDBRANCH   1  30
TORSDOF 5
