REMARK  3 active torsions:
REMARK  status: ('A' for Active; 'I' for Inactive)
REMARK    1  A    between atoms: C7_7  and  N1_8 
REMARK    2  A    between atoms: C10_11  and  C13_14 
REMARK    3  A    between atoms: C18_24  and  C19_26 
ROOT
ATOM      1  C13 <0> d          -1.490   1.532   5.263  0.00  0.00     0.034 C 
ATOM      2  C14 <0> d          -1.048   2.580   6.044  0.00  0.00     0.080 C 
ATOM      3  C15 <0> d           0.260   3.246   5.795  0.00  0.00     0.141 C 
ATOM      4  N2  <0> d           0.778   3.388   4.602  0.00  0.00    -0.383 N 
ATOM      5  N3  <0> d           0.886   3.710   6.971  0.00  0.00    -0.191 N 
ATOM      6  C16 <0> d           0.083   3.957   8.064  0.00  0.00     0.201 A 
ATOM      7  N4  <0> d          -1.199   3.723   8.181  0.00  0.00    -0.182 NA
ATOM      8  C17 <0> d          -1.853   3.107   7.172  0.00  0.00     0.283 C 
ATOM      9  O1  <0> d          -3.067   2.984   7.189  0.00  0.00    -0.265 OA
ATOM     10  S1  <0> d           1.238   4.632   9.228  0.00  0.00    -0.033 SA
ATOM     11  C18 <0> d           2.711   4.448   8.231  0.00  0.00     0.102 A 
ATOM     12  N5  <0> d           2.235   3.950   7.126  0.00  0.00    -0.161 NA
ATOM     13  H12 <0> d           0.269   3.127   3.819  0.00  0.00     0.157 HD
ATOM     14  H26 <0> d           1.671   3.753   4.502  0.00  0.00     0.157 HD
ENDROOT
BRANCH   1  15
ATOM     15  C10 <0> d          -0.620   0.937   4.314  0.00  0.00    -0.011 A 
ATOM     16  C9  <0> d           0.849   0.900   4.362  0.00  0.00     0.038 A 
ATOM     17  C8  <0> d           1.248   0.238   3.263  0.00  0.00     0.014 A 
ATOM     18  N1  <0> d           0.150  -0.138   2.540  0.00  0.00    -0.318 N 
ATOM     19  C22 <0> d           2.679  -0.047   2.887  0.00  0.00     0.068 C 
ATOM     20  C11 <0> d          -0.979   0.277   3.151  0.00  0.00     0.023 A 
ATOM     21  C12 <0> d          -2.385   0.059   2.655  0.00  0.00     0.069 C 
BRANCH  18  22
ATOM     22  C7  <0> d           0.191  -0.848   1.333  0.00  0.00     0.051 A 
ATOM     23  C2  <0> d           0.264  -0.165   0.126  0.00  0.00    -0.034 A 
ATOM     24  C1  <0> d           0.298   1.342   0.113  0.00  0.00     0.050 C 
ATOM     25  C3  <0> d           0.311  -0.867  -1.062  0.00  0.00     0.009 A 
ATOM     26  C4  <0> d           0.279  -2.250  -1.051  0.00  0.00     0.001 A 
ATOM     27  C5  <0> d           0.201  -2.933   0.149  0.00  0.00     0.009 A 
ATOM     28  C6  <0> d           0.153  -2.236   1.340  0.00  0.00    -0.034 A 
ATOM     29  C23 <0> d           0.068  -2.981   2.647  0.00  0.00     0.050 C 
ENDBRANCH  18  22
ENDBRANCH   1  15
BRANCH  11  30
ATOM     30  C19 <0> d           4.138   4.782   8.582  0.00  0.00     0.038 C 
ATOM     31  C20 <0> d           4.768   3.605   9.331  0.00  0.00     0.016 C 
ATOM     32  C21 <0> d           4.928   5.052   7.299  0.00  0.00     0.016 C 
ENDBRANCH  11  30
TORSDOF 3
