REMARK  4 active torsions:
REMARK  status: ('A' for Active; 'I' for Inactive)
REMARK    1  A    between atoms: S1_2  and  N1_5 
REMARK    2  A    between atoms: C4_8  and  N2_11 
REMARK    3  A    between atoms: N2_11  and  C7_12 
REMARK    4  A    between atoms: C7_12  and  C8_13 
ROOT
ATOM      1  N2  <0> d           2.260  -3.397  -3.953  0.00  0.00    -0.070 N 
ATOM      2  H14 <0> d           1.996  -4.131  -3.313  0.00  0.00     0.277 HD
ATOM      3  H24 <0> d           1.763  -3.515  -4.823  0.00  0.00     0.277 HD
ENDROOT
BRANCH   1   4
ATOM      4  C4  <0> d           1.922  -2.092  -3.369  0.00  0.00     0.189 C 
ATOM      5  C3  <0> d           0.403  -1.976  -3.225  0.00  0.00     0.053 C 
ATOM      6  C2  <0> d           0.053  -0.601  -2.648  0.00  0.00     0.137 C 
ATOM      7  N1  <0> d           0.795  -0.411  -1.394  0.00  0.00    -0.311 N 
ATOM      8  C6  <0> d           2.254  -0.584  -1.403  0.00  0.00     0.137 C 
ATOM      9  C5  <0> d           2.579  -1.965  -1.993  0.00  0.00     0.053 C 
BRANCH   7  10
ATOM     10  S1  <0> d           0.002  -0.004   0.002  0.00  0.00     0.224 S 
ATOM     11  C1  <0> d          -0.022   1.810   0.012  0.00  0.00     0.186 C 
ATOM     12  O1  <0> d           0.835  -0.488   1.046  0.00  0.00    -0.206 OA
ATOM     13  O2  <0> d          -1.315  -0.510  -0.168  0.00  0.00    -0.206 OA
ENDBRANCH   7  10
ENDBRANCH   1   4
BRANCH   1  14
ATOM     14  C7  <0> d           3.706  -3.463  -4.203  0.00  0.00     0.240 C 
BRANCH  14  15
ATOM     15  C8  <0> d           4.058  -4.822  -4.811  0.00  0.00     0.049 C 
ATOM     16  C13 <0> d           5.543  -4.841  -5.190  0.00  0.00     0.161 C 
ATOM     17  N5  <0> d           5.924  -6.210  -5.546  0.00  0.00    -0.254 N 
ATOM     18  C10 <0> d           5.216  -7.311  -5.181  0.00  0.00     0.121 A 
ATOM     19  N4  <0> d           7.024  -6.640  -6.288  0.00  0.00    -0.183 NA
ATOM     20  N3  <0> d           4.047  -7.233  -4.420  0.00  0.00    -0.375 N 
ATOM     21  C11 <0> d           5.848  -8.396  -5.677  0.00  0.00     0.070 A 
ATOM     22  C9  <0> d           3.768  -5.927  -3.790  0.00  0.00     0.129 C 
ATOM     23  H19 <0> d           3.453  -7.992  -4.311  0.00  0.00     0.161 HD
ATOM     24  C12 <0> d           6.981  -7.948  -6.368  0.00  0.00     0.142 A 
ENDBRANCH  14  15
ENDBRANCH   1  14
TORSDOF 4
