REMARK  5 active torsions:
REMARK  status: ('A' for Active; 'I' for Inactive)
REMARK    1  A    between atoms: C5_6  and  N3_13 
REMARK       I    between atoms: N3_13  and  C8_14 
REMARK    2  A    between atoms: C8_14  and  C9_16 
REMARK    3  A    between atoms: C9_16  and  N4_17 
REMARK    4  A    between atoms: N5_20  and  C14_23 
REMARK    5  A    between atoms: C14_23  and  C15_24 
REMARK       I    between atoms: C15_24  and  N6_26 
ROOT
ATOM      1  N4  <0> d           4.877  -0.045   0.901  0.00  0.00    -0.059 N 
ATOM      2  C10 <0> d           4.814   0.724  -0.350  0.00  0.00     0.265 C 
ATOM      3  C11 <0> d           3.676   1.744  -0.262  0.00  0.00     0.300 C 
ATOM      4  N5  <0> d           2.410   1.040  -0.015  0.00  0.00     0.100 N 
ATOM      5  C12 <0> d           2.473   0.271   1.235  0.00  0.00     0.300 C 
ATOM      6  C13 <0> d           3.611  -0.748   1.147  0.00  0.00     0.265 C 
ATOM      7  H35 <0> d           5.039   0.663   1.727  0.00  0.00     0.280 HD
ENDROOT
BRANCH   1   8
ATOM      8  C9  <0> d           6.006  -0.984   0.885  0.00  0.00     0.337 C 
BRANCH   8   9
ATOM      9  C8  <0> d           6.189  -1.573   2.260  0.00  0.00     0.249 C 
ATOM     10  N3  <0> d           7.173  -2.467   2.485  0.00  0.00    -0.305 N 
ATOM     11  H7  <0> d           7.842  -2.767   1.665  0.00  0.00     0.171 HD
ATOM     12  O3  <0> d           5.451  -1.243   3.164  0.00  0.00    -0.271 OA
BRANCH  10  13
ATOM     13  C5  <0> d           7.340  -3.008   3.748  0.00  0.00     0.167 A 
ATOM     14  O1  <0> d           6.600  -2.725   4.831  0.00  0.00    -0.296 OA
ATOM     15  C4  <0> d           7.016  -3.420   5.905  0.00  0.00     0.065 A 
ATOM     16  C3  <0> d           8.068  -4.189   5.553  0.00  0.00     0.039 A 
ATOM     17  C23 <0> d           6.409  -3.348   7.282  0.00  0.00     0.077 C 
ATOM     18  C2  <0> d           8.957  -5.145   6.221  0.00  0.00     0.064 A 
ATOM     19  C6  <0> d           8.298  -3.924   4.112  0.00  0.00     0.099 A 
ATOM     20  C1  <0> d           8.774  -5.455   7.684  0.00  0.00     0.073 C 
ATOM     21  N2  <0> d           9.903  -5.722   5.546  0.00  0.00    -0.176 NA
ATOM     22  N1  <0> d          10.137  -5.490   4.193  0.00  0.00    -0.242 N 
ATOM     23  C7  <0> d           9.393  -4.635   3.460  0.00  0.00     0.277 A 
ATOM     24  H1  <0> d          10.968  -6.037   3.724  0.00  0.00     0.192 HD
ATOM     25  O2  <0> d           9.632  -4.460   2.279  0.00  0.00    -0.266 OA
ENDBRANCH  10  13
ENDBRANCH   8   9
ENDBRANCH   1   8
BRANCH   4  26
ATOM     26  C14 <0> d           1.280   1.980   0.001  0.00  0.00     0.374 C 
BRANCH  26  27
ATOM     27  C15 <0> d          -0.014   1.209   0.009  0.00  0.00     0.248 C 
ATOM     28  O4  <0> d           0.002  -0.004   0.002  0.00  0.00    -0.271 OA
ATOM     29  N6  <0> d          -1.191   1.867   0.018  0.00  0.00    -0.350 N 
ATOM     30  C20 <0> d          -2.461   1.129   0.020  0.00  0.00     0.130 C 
ATOM     31  C16 <0> d          -1.227   3.335   0.032  0.00  0.00     0.130 C 
ATOM     32  C19 <0> d          -3.325   1.632  -1.141  0.00  0.00    -0.000 C 
ATOM     33  C18 <0> d          -3.481   3.151  -1.034  0.00  0.00     0.011 C 
ATOM     34  C21 <0> d          -4.704   0.972  -1.074  0.00  0.00     0.011 C 
ATOM     35  C17 <0> d          -2.105   3.814  -1.134  0.00  0.00    -0.000 C 
ATOM     36  C22 <0> d          -1.449   3.432  -2.462  0.00  0.00     0.011 C 
ENDBRANCH  26  27
ENDBRANCH   4  26
TORSDOF 5
