REMARK  4 active torsions:
REMARK  status: ('A' for Active; 'I' for Inactive)
REMARK    1  A    between atoms: C7_8  and  N2_12 
REMARK    2  A    between atoms: N2_12  and  C9_13 
REMARK    3  A    between atoms: C9_13  and  C10_14 
REMARK    4  A    between atoms: N3_17  and  C14_19 
ROOT
ATOM      1  C1  <0> d          -0.017   1.379   0.010  0.00  0.00     0.026 A 
ATOM      2  C2  <0> d           1.164   2.093   0.002  0.00  0.00     0.032 A 
ATOM      3  C3  <0> d           2.386   1.424  -0.013  0.00  0.00     0.043 A 
ATOM      4  C4  <0> d           2.392   0.034  -0.021  0.00  0.00     0.012 A 
ATOM      5  C5  <0> d           1.213  -0.676  -0.013  0.00  0.00     0.036 A 
ATOM      6  C6  <0> d           0.002  -0.004   0.002  0.00  0.00     0.034 A 
ATOM      7 Cl1  <0> d          -1.488  -0.895   0.012  0.00  0.00    -0.084 Cl
ATOM      8  C7  <0> d           3.844  -0.384  -0.037  0.00  0.00     0.347 A 
ATOM      9  C8  <0> d           4.605   0.924  -0.037  0.00  0.00     0.260 A 
ATOM     10  O1  <0> d           5.811   1.057  -0.048  0.00  0.00    -0.270 OA
ATOM     11  N1  <0> d           3.694   1.912  -0.023  0.00  0.00    -0.324 N 
ATOM     12  H6  <0> d           3.919   2.855  -0.020  0.00  0.00     0.169 HD
ENDROOT
BRANCH   8  13
ATOM     13  N2  <0> d           4.167  -1.170   1.162  0.00  0.00     0.102 N 
ATOM     14  H7  <0> d           4.338  -0.568   1.953  0.00  0.00     0.317 HD
BRANCH  13  15
ATOM     15  C9  <0> d           5.312  -2.057   0.917  0.00  0.00     0.277 C 
BRANCH  15  16
ATOM     16  C10 <0> d           5.617  -2.857   2.186  0.00  0.00     0.041 C 
ATOM     17  C13 <0> d           6.861  -3.757   1.980  0.00  0.00     0.241 C 
ATOM     18  N3  <0> d           6.661  -4.843   2.976  0.00  0.00    -0.066 N 
ATOM     19  C12 <0> d           5.213  -5.146   2.961  0.00  0.00     0.236 C 
ATOM     20  H21 <0> d           6.941  -4.527   3.892  0.00  0.00     0.280 HD
ATOM     21  C11 <0> d           4.491  -3.877   2.473  0.00  0.00     0.036 C 
BRANCH  18  22
ATOM     22  C14 <0> d           7.432  -6.033   2.591  0.00  0.00     0.188 A 
ATOM     23  C16 <0> d           8.954  -5.896   2.519  0.00  0.00     0.035 A 
ATOM     24  C15 <0> d           8.310  -6.683   3.663  0.00  0.00     0.035 A 
ENDBRANCH  18  22
ENDBRANCH  15  16
ENDBRANCH  13  15
ENDBRANCH   8  13
TORSDOF 4
