REMARK  4 active torsions:
REMARK  status: ('A' for Active; 'I' for Inactive)
REMARK    1  A    between atoms: C3_3  and  N2_11 
REMARK    2  A    between atoms: C6_6  and  N1_7 
REMARK    3  A    between atoms: C9_14  and  C12_17 
REMARK    4  A    between atoms: C12_17  and  N3_18 
ROOT
ATOM      1  N2  <0> d           3.582   2.124  -0.021  0.00  0.00    -0.380 N 
ATOM      2  C7  <0> d           4.210   2.518  -1.290  0.00  0.00     0.123 C 
ATOM      3  C8  <0> d           5.660   2.021  -1.298  0.00  0.00     0.026 C 
ATOM      4  C9  <0> d           6.380   2.542  -0.051  0.00  0.00     0.014 C 
ATOM      5  C10 <0> d           5.690   1.999   1.202  0.00  0.00     0.026 C 
ATOM      6  C11 <0> d           4.238   2.500   1.239  0.00  0.00     0.123 C 
ENDROOT
BRANCH   1   7
ATOM      7  C3  <0> d           2.381   1.410  -0.013  0.00  0.00     0.048 A 
ATOM      8  C2  <0> d           1.169   2.087   0.002  0.00  0.00     0.033 A 
ATOM      9  C1  <0> d          -0.017   1.378   0.010  0.00  0.00     0.038 A 
ATOM     10  C6  <0> d           0.002  -0.004   0.002  0.00  0.00     0.104 A 
ATOM     11  C5  <0> d           1.207  -0.682  -0.013  0.00  0.00     0.057 A 
ATOM     12  C4  <0> d           2.397   0.020  -0.021  0.00  0.00     0.040 A 
ATOM     13 Br1  <0> d           4.044  -0.908  -0.042  0.00  0.00    -0.049 Br
BRANCH  10  14
ATOM     14  N1  <0> d          -1.270  -0.760   0.010  0.00  0.00    -0.116 N 
ATOM     15  O1  <0> d          -2.325  -0.168   0.023  0.00  0.00    -0.532 OA
ATOM     16  O2  <0> d          -1.256  -1.969   0.003  0.00  0.00    -0.532 OA
ENDBRANCH  10  14
ENDBRANCH   1   7
BRANCH   4  17
ATOM     17  C12 <0> d           7.837   2.076  -0.073  0.00  0.00     0.234 C 
BRANCH  17  18
ATOM     18  N3  <0> d           8.559   2.673   1.059  0.00  0.00    -0.079 N 
ATOM     19  H15 <0> d           8.525   3.679   0.986  0.00  0.00     0.274 HD
ATOM     20  H16 <0> d           8.126   2.384   1.923  0.00  0.00     0.274 HD
ATOM     21  H17 <0> d           9.520   2.366   1.044  0.00  0.00     0.274 HD
ENDBRANCH  17  18
ENDBRANCH   4  17
TORSDOF 4
