MODEL 1
REMARK VINA RESULT:     382.2      0.000      0.000
REMARK  31 active torsions:
REMARK  status: ('A' for Active; 'I' for Inactive)
REMARK    1  A    between atoms: S1_1  and  C2_10 
REMARK    2  A    between atoms: S1_1  and  C3_11 
REMARK    3  A    between atoms: S1_1  and  C5_13 
REMARK    4  A    between atoms: O3_4  and  N3_8 
REMARK    5  A    between atoms: O3_4  and  C2_10 
REMARK    6  A    between atoms: O4_5  and  C7_15 
REMARK    7  A    between atoms: N1_6  and  C5_13 
REMARK    8  A    between atoms: N1_6  and  C2_10 
REMARK    9  A    between atoms: N1_6  and  C4_12 
REMARK   10  A    between atoms: N1_6  and  C12_20 
REMARK   11  A    between atoms: N2_7  and  C5_13 
REMARK   12  A    between atoms: N2_7  and  C6_14 
REMARK   13  A    between atoms: N2_7  and  C9_17 
REMARK   14  A    between atoms: N3_8  and  C11_19 
REMARK   15  A    between atoms: C1_9  and  C5_13 
REMARK   16  A    between atoms: C3_11  and  C4_12 
REMARK   17  A    between atoms: C3_11  and  C5_13 
REMARK   18  A    between atoms: C3_11  and  C7_15 
REMARK   19  A    between atoms: C3_11  and  C8_16 
REMARK   20  A    between atoms: C4_12  and  C12_20 
REMARK   21  A    between atoms: C6_14  and  C11_19 
REMARK   22  A    between atoms: C6_14  and  C15_23 
REMARK   23  A    between atoms: C7_15  and  C8_16 
REMARK   24  A    between atoms: C7_15  and  C12_20 
REMARK   25  A    between atoms: C9_17  and  C11_19 
REMARK   26  A    between atoms: C9_17  and  C14_22 
REMARK   27  A    between atoms: C10_18  and  C11_19 
REMARK   28  A    between atoms: C10_18  and  C13_21 
REMARK   29  A    between atoms: C10_18  and  C15_23 
REMARK   30  A    between atoms: C13_21  and  C14_22 
REMARK   31  A    between atoms: C14_22  and  C15_23 
ROOT
HETATM    1  S1  UNL     1     -37.373  12.669  48.308  1.00  0.00    -0.201 SA
HETATM    2  O1  UNL     1     -39.979  11.763  48.358  1.00  0.00     0.000 OA
HETATM    3  O2  UNL     1     -38.529  10.217  47.852  1.00  0.00    -0.357 OA
HETATM    4  O3  UNL     1     -40.354  12.874  48.656  1.00  0.00     0.000 OA
HETATM    5  O4  UNL     1     -37.107  10.230  47.712  1.00  0.00     0.000 OA
HETATM    6  N1  UNL     1     -38.458  11.895  48.236  1.00  0.00     0.000 N 
HETATM    7  N2  UNL     1     -39.338  13.621  48.728  1.00  0.00     0.000 N 
HETATM    8  C1  UNL     1     -38.194  12.661  48.389  1.00  0.00     0.056 A 
HETATM    9  C2  UNL     1     -38.977  12.908  48.525  1.00  0.00     0.061 A 
HETATM   10  C3  UNL     1     -37.800  11.429  48.061  1.00  0.00     0.081 A 
HETATM   11  C4  UNL     1     -37.130  11.907  48.106  1.00  0.00     0.071 A 
HETATM   12  C5  UNL     1     -39.243  12.135  48.371  1.00  0.00     0.054 A 
HETATM   13  C7  UNL     1     -36.656  11.261  47.907  1.00  0.00     0.072 A 
HETATM   14  C8  UNL     1     -36.345  12.163  48.087  1.00  0.00     0.058 A 
HETATM   15  C11 UNL     1     -40.158  13.658  48.819  1.00  0.00     0.222 A 
HETATM   16  C12 UNL     1     -37.812  10.626  47.875  1.00  0.00     0.132 A 
ENDROOT
BRANCH   7  17
HETATM   17  C6  UNL     1     -40.519  14.371  49.022  1.00  0.00     0.180 A 
HETATM   18  N3  UNL     1     -41.133  14.137  48.523  1.00  0.00     0.125 N 
HETATM   19  C10 UNL     1     -41.200  14.804  49.191  1.00  0.00     0.180 A 
HETATM   20  C14 UNL     1     -41.190  15.373  49.789  1.00  0.00     0.061 A 
HETATM   21  C9  UNL     1     -39.827  14.507  49.450  1.00  0.00     0.083 A 
HETATM   22  C13 UNL     1     -39.816  15.076  50.048  1.00  0.00     0.061 A 
HETATM   23  C15 UNL     1     -40.497  15.508  50.217  1.00  0.00     0.061 A 
ENDBRANCH   7  17
TORSDOF 31
ENDMDL
