MODEL 1
REMARK VINA RESULT:     158.7      0.000      0.000
REMARK  17 active torsions:
REMARK  status: ('A' for Active; 'I' for Inactive)
REMARK    1  A    between atoms: O2_2  and  C12_16 
REMARK    2  A    between atoms: N1_4  and  C3_7 
REMARK    3  A    between atoms: C2_6  and  C6_10 
REMARK    4  A    between atoms: C2_6  and  C7_11 
REMARK    5  A    between atoms: C2_6  and  C9_13 
REMARK    6  A    between atoms: C4_8  and  C6_10 
REMARK    7  A    between atoms: C5_9  and  C6_10 
REMARK    8  A    between atoms: C7_11  and  C11_15 
REMARK    9  A    between atoms: C8_12  and  C9_13 
REMARK   10  A    between atoms: C8_12  and  C11_15 
REMARK   11  A    between atoms: C8_12  and  C12_16 
REMARK   12  A    between atoms: C8_12  and  C13_17 
REMARK   13  A    between atoms: C9_13  and  C10_14 
REMARK   14  A    between atoms: C9_13  and  C11_15 
REMARK   15  A    between atoms: C10_14  and  C12_16 
REMARK   16  A    between atoms: C11_15  and  C12_16 
REMARK   17  A    between atoms: C11_15  and  C13_17 
ROOT
HETATM    1  O1  UNL     1     -38.446  13.372  50.189  1.00  0.00     0.000 OA
HETATM    2  O2  UNL     1     -41.309  15.835  50.325  1.00  0.00     0.000 OA
HETATM    3  O3  UNL     1     -41.300  13.376  50.041  1.00  0.00    -0.365 OA
HETATM    4  N1  UNL     1     -37.022  14.189  50.357  1.00  0.00     0.000 N 
HETATM    5  C1  UNL     1     -36.310  14.597  50.441  1.00  0.00     0.000 A 
HETATM    6  C2  UNL     1     -37.737  14.600  50.368  1.00  0.00     0.004 A 
HETATM    7  C3  UNL     1     -38.448  14.191  50.284  1.00  0.00     0.009 A 
HETATM    8  C4  UNL     1     -35.598  15.006  50.526  1.00  0.00     0.000 A 
HETATM    9  C5  UNL     1     -35.895  13.887  50.381  1.00  0.00     0.000 A 
HETATM   10  C6  UNL     1     -36.725  15.308  50.502  1.00  0.00     0.000 A 
HETATM   11  C7  UNL     1     -39.164  14.602  50.294  1.00  0.00     0.026 A 
HETATM   12  C8  UNL     1     -39.876  14.194  50.210  1.00  0.00     0.043 A 
HETATM   13  C9  UNL     1     -39.168  15.422  50.389  1.00  0.00     0.026 A 
HETATM   14  C10 UNL     1     -40.591  14.605  50.220  1.00  0.00     0.068 A 
HETATM   15  C11 UNL     1     -40.594  15.424  50.315  1.00  0.00     0.046 A 
HETATM   16  C12 UNL     1     -39.883  15.833  50.399  1.00  0.00     0.029 A 
HETATM   17  C13 UNL     1     -41.302  14.196  50.136  1.00  0.00     0.113 A 
ENDROOT
TORSDOF 17
ENDMDL
