MODEL 1
REMARK VINA RESULT:     204.3      0.000      0.000
REMARK  27 active torsions:
REMARK  status: ('A' for Active; 'I' for Inactive)
REMARK    1  A    between atoms: O1_1  and  C1_4 
REMARK    2  A    between atoms: O1_1  and  C12_15 
REMARK    3  A    between atoms: O1_1  and  C16_19 
REMARK    4  A    between atoms: N1_2  and  C7_10 
REMARK    5  A    between atoms: N2_3  and  C1_4 
REMARK    6  A    between atoms: N2_3  and  C6_9 
REMARK    7  A    between atoms: C1_4  and  C7_10 
REMARK    8  A    between atoms: C1_4  and  C5_8 
REMARK    9  A    between atoms: C2_5  and  C3_6 
REMARK   10  A    between atoms: C2_5  and  C5_8 
REMARK   11  A    between atoms: C2_5  and  C7_10 
REMARK   12  A    between atoms: C3_6  and  C4_7 
REMARK   13  A    between atoms: C3_6  and  C6_9 
REMARK   14  A    between atoms: C3_6  and  C8_11 
REMARK   15  A    between atoms: C4_7  and  C5_8 
REMARK   16  A    between atoms: C6_9  and  C7_10 
REMARK   17  A    between atoms: C7_10  and  C12_15 
REMARK   18  A    between atoms: C7_10  and  C16_19 
REMARK   19  A    between atoms: C10_13  and  C18_21 
REMARK   20  A    between atoms: C12_15  and  C13_16 
REMARK   21  A    between atoms: C12_15  and  C15_18 
REMARK   22  A    between atoms: C13_16  and  C14_17 
REMARK   23  A    between atoms: C13_16  and  C18_21 
REMARK   24  A    between atoms: C14_17  and  C15_18 
REMARK   25  A    between atoms: C14_17  and  C16_19 
REMARK   26  A    between atoms: C15_18  and  C18_21 
REMARK   27  A    between atoms: C15_18  and  C17_20 
ROOT
HETATM    1  O1  UNL     1     -39.275  15.502  50.521  1.00  0.00     0.000 OA
HETATM    2  N2  UNL     1     -39.105  14.519  49.497  1.00  0.00     0.000 N 
HETATM    3  C7  UNL     1     -38.832  14.896  50.178  1.00  0.00     0.001 A 
HETATM    4  C10 UNL     1     -39.822  14.749  49.159  1.00  0.00     0.000 A 
HETATM    5  C12 UNL     1     -40.265  15.354  49.500  1.00  0.00     0.000 A 
HETATM    6  C13 UNL     1     -40.096  14.372  48.477  1.00  0.00     0.000 A 
HETATM    7  C14 UNL     1     -40.982  15.583  49.162  1.00  0.00     0.000 A 
HETATM    8  C15 UNL     1     -40.812  14.601  48.138  1.00  0.00     0.000 A 
HETATM    9  C16 UNL     1     -39.991  15.731  50.182  1.00  0.00     0.000 A 
HETATM   10  C17 UNL     1     -39.652  13.766  48.135  1.00  0.00     0.000 A 
HETATM   11  C18 UNL     1     -41.255  15.207  48.481  1.00  0.00     0.000 A 
ENDROOT
BRANCH   1  12
HETATM   12  C1  UNL     1     -38.116  14.667  50.517  1.00  0.00     0.001 A 
HETATM   13  N1  UNL     1     -37.776  13.915  50.515  1.00  0.00     0.000 N 
HETATM   14  C3  UNL     1     -36.955  13.832  50.512  1.00  0.00     0.003 A 
HETATM   15  C6  UNL     1     -38.259  13.245  50.518  1.00  0.00     0.007 A 
HETATM   16  C2  UNL     1     -37.633  15.337  50.514  1.00  0.00     0.000 A 
HETATM   17  C5  UNL     1     -36.474  14.502  50.510  1.00  0.00     0.000 A 
HETATM   18  C8  UNL     1     -37.919  12.493  50.517  1.00  0.00     0.018 A 
HETATM   19  C9  UNL     1     -38.402  11.824  50.519  1.00  0.00     0.021 A 
HETATM   20  C11 UNL     1     -38.062  11.071  50.518  1.00  0.00    -0.052 A 
HETATM   21  C4  UNL     1     -36.812  15.254  50.511  1.00  0.00     0.000 A 
ENDBRANCH   1  12
TORSDOF 27
ENDMDL
