MODEL 1
REMARK VINA RESULT:     265.6      0.000      0.000
REMARK  26 active torsions:
REMARK  status: ('A' for Active; 'I' for Inactive)
REMARK    1  A    between atoms: N2_2  and  N3_3 
REMARK    2  A    between atoms: N2_2  and  C7_12 
REMARK    3  A    between atoms: N3_3  and  C15_20 
REMARK    4  A    between atoms: C1_6  and  C8_13 
REMARK    5  A    between atoms: C2_7  and  C3_8 
REMARK    6  A    between atoms: C2_7  and  C5_10 
REMARK    7  A    between atoms: C2_7  and  C13_18 
REMARK    8  A    between atoms: C3_8  and  C6_11 
REMARK    9  A    between atoms: C3_8  and  C14_19 
REMARK   10  A    between atoms: C4_9  and  C6_11 
REMARK   11  A    between atoms: C4_9  and  C8_13 
REMARK   12  A    between atoms: C4_9  and  C11_16 
REMARK   13  A    between atoms: C5_10  and  C6_11 
REMARK   14  A    between atoms: C5_10  and  C7_12 
REMARK   15  A    between atoms: C5_10  and  C12_17 
REMARK   16  A    between atoms: C6_11  and  C9_14 
REMARK   17  A    between atoms: C6_11  and  C13_18 
REMARK   18  A    between atoms: C7_12  and  C10_15 
REMARK   19  A    between atoms: C7_12  and  C14_19 
REMARK   20  A    between atoms: C8_13  and  C15_20 
REMARK   21  A    between atoms: C9_14  and  C11_16 
REMARK   22  A    between atoms: C10_15  and  C12_17 
REMARK   23  A    between atoms: C11_16  and  C13_18 
REMARK   24  A    between atoms: C11_16  and  C16_21 
REMARK   25  A    between atoms: C12_17  and  C14_19 
REMARK   26  A    between atoms: C12_17  and  C17_22 
ROOT
HETATM    1  N1  UNL     1     -40.236  14.694  49.856  1.00  0.00     0.000 N 
HETATM    2  N2  UNL     1     -41.048  14.735  49.721  1.00  0.00     0.000 N 
HETATM    3  N3  UNL     1     -40.687  15.829  50.393  1.00  0.00     0.339 N 
HETATM    4  N4  UNL     1     -35.707  14.262  50.496  1.00  0.00    -0.183 N 
HETATM    5  N5  UNL     1     -41.253  10.855  47.548  1.00  0.00    -0.183 N 
HETATM    6  C1  UNL     1     -39.734  14.084  49.618  1.00  0.00     0.030 A 
HETATM    7  C2  UNL     1     -38.929  14.120  49.793  1.00  0.00     0.009 A 
HETATM    8  C3  UNL     1     -40.038  13.438  49.204  1.00  0.00     0.007 A 
HETATM    9  C4  UNL     1     -38.625  14.765  50.207  1.00  0.00     0.034 A 
HETATM   10  C5  UNL     1     -39.536  12.828  48.966  1.00  0.00     0.007 A 
HETATM   11  C6  UNL     1     -38.427  13.509  49.555  1.00  0.00     0.009 A 
HETATM   12  C7  UNL     1     -40.843  13.402  49.028  1.00  0.00     0.007 A 
HETATM   13  C8  UNL     1     -40.012  15.371  50.272  1.00  0.00     0.261 A 
HETATM   14  C9  UNL     1     -37.820  14.801  50.383  1.00  0.00     0.023 A 
HETATM   15  C10 UNL     1     -39.840  12.182  48.551  1.00  0.00     0.021 A 
HETATM   16  C11 UNL     1     -37.622  13.545  49.730  1.00  0.00     0.023 A 
HETATM   17  C12 UNL     1     -41.147  12.757  48.615  1.00  0.00     0.021 A 
HETATM   18  C13 UNL     1     -37.318  14.191  50.145  1.00  0.00     0.023 A 
HETATM   19  C14 UNL     1     -40.646  12.146  48.376  1.00  0.00     0.021 A 
HETATM   20  C15 UNL     1     -41.328  15.437  50.053  1.00  0.00     0.324 A 
HETATM   21  C16 UNL     1     -36.513  14.227  50.320  1.00  0.00     0.104 A 
HETATM   22  C17 UNL     1     -40.949  11.501  47.962  1.00  0.00     0.104 A 
ENDROOT
TORSDOF 26
ENDMDL
