MODEL 1
REMARK VINA RESULT:     232.7      0.000      0.000
REMARK  25 active torsions:
REMARK  status: ('A' for Active; 'I' for Inactive)
REMARK    1  A    between atoms: O3_3  and  C5_8 
REMARK    2  A    between atoms: C2_5  and  C7_10 
REMARK    3  A    between atoms: C2_5  and  C10_13 
REMARK    4  A    between atoms: C3_6  and  C5_8 
REMARK    5  A    between atoms: C3_6  and  C6_9 
REMARK    6  A    between atoms: C3_6  and  C8_11 
REMARK    7  A    between atoms: C3_6  and  C9_12 
REMARK    8  A    between atoms: C4_7  and  C5_8 
REMARK    9  A    between atoms: C4_7  and  C8_11 
REMARK   10  A    between atoms: C4_7  and  C11_14 
REMARK   11  A    between atoms: C4_7  and  C13_16 
REMARK   12  A    between atoms: C5_8  and  C7_10 
REMARK   13  A    between atoms: C5_8  and  C10_13 
REMARK   14  A    between atoms: C6_9  and  C10_13 
REMARK   15  A    between atoms: C7_10  and  C8_11 
REMARK   16  A    between atoms: C7_10  and  C9_12 
REMARK   17  A    between atoms: C7_10  and  C11_14 
REMARK   18  A    between atoms: C7_10  and  C13_16 
REMARK   19  A    between atoms: C11_14  and  C16_19 
REMARK   20  A    between atoms: C12_15  and  C13_16 
REMARK   21  A    between atoms: C12_15  and  C15_18 
REMARK   22  A    between atoms: C13_16  and  C14_17 
REMARK   23  A    between atoms: C13_16  and  C16_19 
REMARK   24  A    between atoms: C14_17  and  C15_18 
REMARK   25  A    between atoms: C15_18  and  C16_19 
ROOT
HETATM    1  O1  UNL     1     -35.663  12.095  49.910  1.00  0.00    -0.365 OA
HETATM    2  O2  UNL     1     -39.801  13.260  49.140  1.00  0.00     0.000 OA
HETATM    3  O3  UNL     1     -35.903  13.380  50.488  1.00  0.00     0.000 OA
HETATM    4  C1  UNL     1     -36.953  12.702  49.795  1.00  0.00     0.081 A 
HETATM    5  C2  UNL     1     -37.462  13.332  49.949  1.00  0.00     0.040 A 
HETATM    6  C3  UNL     1     -38.242  13.308  49.679  1.00  0.00     0.026 A 
HETATM    7  C4  UNL     1     -38.751  13.938  49.833  1.00  0.00     0.009 A 
HETATM    8  C5  UNL     1     -37.192  13.986  50.372  1.00  0.00     0.039 A 
HETATM    9  C6  UNL     1     -37.223  12.047  49.371  1.00  0.00     0.050 A 
HETATM   10  C7  UNL     1     -38.481  14.593  50.257  1.00  0.00     0.009 A 
HETATM   11  C8  UNL     1     -37.702  14.617  50.526  1.00  0.00     0.010 A 
HETATM   12  C9  UNL     1     -39.530  13.914  49.564  1.00  0.00     0.003 A 
HETATM   13  C10 UNL     1     -36.173  12.726  50.064  1.00  0.00     0.096 A 
HETATM   14  C11 UNL     1     -40.040  14.545  49.718  1.00  0.00     0.001 A 
HETATM   15  C12 UNL     1     -40.819  14.521  49.448  1.00  0.00     0.000 A 
HETATM   16  C13 UNL     1     -39.769  15.199  50.141  1.00  0.00     0.001 A 
HETATM   17  C14 UNL     1     -41.328  15.151  49.602  1.00  0.00     0.000 A 
HETATM   18  C15 UNL     1     -40.279  15.830  50.296  1.00  0.00     0.000 A 
HETATM   19  C16 UNL     1     -41.058  15.806  50.026  1.00  0.00     0.000 A 
ENDROOT
TORSDOF 25
ENDMDL
