MODEL 1
REMARK VINA RESULT:      41.2      0.000      0.000
REMARK  15 active torsions:
REMARK  status: ('A' for Active; 'I' for Inactive)
REMARK    1  A    between atoms: C2_4  and  C3_5 
REMARK    2  A    between atoms: C2_4  and  C4_6 
REMARK    3  A    between atoms: C2_4  and  C8_10 
REMARK    4  A    between atoms: C2_4  and  C10_12 
REMARK    5  A    between atoms: C3_5  and  C4_6 
REMARK    6  A    between atoms: C3_5  and  C5_7 
REMARK    7  A    between atoms: C3_5  and  C7_9 
REMARK    8  A    between atoms: C4_6  and  C6_8 
REMARK    9  A    between atoms: C6_8  and  C7_9 
REMARK   10  A    between atoms: C6_8  and  C9_11 
REMARK   11  A    between atoms: C6_8  and  C10_12 
REMARK   12  A    between atoms: C7_9  and  C8_10 
REMARK   13  A    between atoms: C7_9  and  C10_12 
REMARK   14  A    between atoms: C8_10  and  C9_11 
REMARK   15  A    between atoms: C9_11  and  C10_12 
ROOT
HETATM    1  O1  UNL     1     -41.221  15.308  48.154  1.00  0.00     0.000 OA
HETATM    2  N1  UNL     1     -38.842  15.565  49.719  1.00  0.00     0.000 N 
HETATM    3  C1  UNL     1     -38.020  15.540  49.778  1.00  0.00     0.000 A 
HETATM    4  C2  UNL     1     -39.665  15.591  49.660  1.00  0.00     0.000 A 
HETATM    5  C3  UNL     1     -38.894  15.758  50.519  1.00  0.00     0.000 A 
HETATM    6  C4  UNL     1     -38.791  15.373  48.918  1.00  0.00     0.000 A 
HETATM    7  C5  UNL     1     -37.654  15.694  50.500  1.00  0.00     0.000 A 
HETATM    8  C6  UNL     1     -40.032  15.437  48.937  1.00  0.00     0.000 A 
HETATM    9  C7  UNL     1     -40.121  15.770  50.323  1.00  0.00     0.000 A 
HETATM   10  C8  UNL     1     -40.854  15.462  48.878  1.00  0.00     0.000 A 
HETATM   11  C9  UNL     1     -40.944  15.795  50.264  1.00  0.00     0.000 A 
HETATM   12  C10 UNL     1     -41.311  15.641  49.541  1.00  0.00     0.000 A 
ENDROOT
TORSDOF 15
ENDMDL
