MODEL 1
REMARK VINA RESULT:     130.0      0.000      0.000
REMARK  25 active torsions:
REMARK  status: ('A' for Active; 'I' for Inactive)
REMARK    1  A    between atoms: O1_1  and  C3_6 
REMARK    2  A    between atoms: N1_2  and  C9_12 
REMARK    3  A    between atoms: N2_3  and  C13_16 
REMARK    4  A    between atoms: C1_4  and  C6_9 
REMARK    5  A    between atoms: C1_4  and  C8_11 
REMARK    6  A    between atoms: C1_4  and  C10_13 
REMARK    7  A    between atoms: C2_5  and  C5_8 
REMARK    8  A    between atoms: C2_5  and  C12_15 
REMARK    9  A    between atoms: C3_6  and  C4_7 
REMARK   10  A    between atoms: C3_6  and  C5_8 
REMARK   11  A    between atoms: C3_6  and  C8_11 
REMARK   12  A    between atoms: C4_7  and  C5_8 
REMARK   13  A    between atoms: C4_7  and  C6_9 
REMARK   14  A    between atoms: C4_7  and  C7_10 
REMARK   15  A    between atoms: C4_7  and  C10_13 
REMARK   16  A    between atoms: C5_8  and  C11_14 
REMARK   17  A    between atoms: C6_9  and  C14_17 
REMARK   18  A    between atoms: C7_10  and  C8_11 
REMARK   19  A    between atoms: C7_10  and  C12_15 
REMARK   20  A    between atoms: C8_11  and  C9_12 
REMARK   21  A    between atoms: C9_12  and  C12_15 
REMARK   22  A    between atoms: C10_13  and  C11_14 
REMARK   23  A    between atoms: C10_13  and  C14_17 
REMARK   24  A    between atoms: C11_14  and  C13_16 
REMARK   25  A    between atoms: C13_16  and  C14_17 
ROOT
HETATM    1  O1  UNL     1     -41.244  12.899  47.528  1.00  0.00     0.000 OA
HETATM    2  N1  UNL     1     -41.260  15.724  49.234  1.00  0.00    -0.016 N 
HETATM    3  N2  UNL     1     -41.301  10.733  48.723  1.00  0.00    -0.013 N 
HETATM    4  C1  UNL     1     -41.271  13.590  48.779  1.00  0.00     0.079 A 
HETATM    5  C2  UNL     1     -41.275  14.296  49.206  1.00  0.00     0.150 A 
HETATM    6  C3  UNL     1     -41.247  14.016  48.073  1.00  0.00     0.059 A 
HETATM    7  C4  UNL     1     -41.295  13.164  49.485  1.00  0.00     0.064 A 
HETATM    8  C5  UNL     1     -41.267  12.884  48.353  1.00  0.00     0.079 A 
HETATM    9  C6  UNL     1     -41.286  12.161  48.750  1.00  0.00     0.166 A 
HETATM   10  C7  UNL     1     -41.298  14.281  50.030  1.00  0.00     0.102 A 
HETATM   11  C8  UNL     1     -41.256  15.019  48.808  1.00  0.00     0.176 A 
HETATM   12  C9  UNL     1     -41.302  14.986  50.456  1.00  0.00     0.212 A 
HETATM   13  C10 UNL     1     -41.309  12.145  49.576  1.00  0.00     0.103 A 
HETATM   14  C11 UNL     1     -41.282  11.456  48.324  1.00  0.00     0.197 A 
HETATM   15  C12 UNL     1     -41.283  15.709  50.058  1.00  0.00     0.212 A 
HETATM   16  C13 UNL     1     -41.328  11.422  49.974  1.00  0.00     0.215 A 
HETATM   17  C14 UNL     1     -41.324  10.717  49.548  1.00  0.00     0.215 A 
ENDROOT
TORSDOF 25
ENDMDL
