MODEL 1
REMARK VINA RESULT:     113.5      0.000      0.000
REMARK  21 active torsions:
REMARK  status: ('A' for Active; 'I' for Inactive)
REMARK    1  A    between atoms: S1_1  and  C8_15 
REMARK    2  A    between atoms: O1_2  and  C8_15 
REMARK    3  A    between atoms: O2_3  and  C2_9 
REMARK    4  A    between atoms: O3_4  and  C1_8 
REMARK    5  A    between atoms: O3_4  and  C3_10 
REMARK    6  A    between atoms: O3_4  and  C4_11 
REMARK    7  A    between atoms: O3_4  and  C8_15 
REMARK    8  A    between atoms: N1_5  and  N2_6 
REMARK    9  A    between atoms: N2_6  and  C8_15 
REMARK   10  A    between atoms: N3_7  and  C7_14 
REMARK   11  A    between atoms: C1_8  and  C5_12 
REMARK   12  A    between atoms: C2_9  and  C3_10 
REMARK   13  A    between atoms: C2_9  and  C5_12 
REMARK   14  A    between atoms: C2_9  and  C7_14 
REMARK   15  A    between atoms: C3_10  and  C5_12 
REMARK   16  A    between atoms: C3_10  and  C6_13 
REMARK   17  A    between atoms: C4_11  and  C9_16 
REMARK   18  A    between atoms: C5_12  and  C7_14 
REMARK   19  A    between atoms: C6_13  and  C7_14 
REMARK   20  A    between atoms: C8_15  and  C9_16 
REMARK   21  A    between atoms: C8_15  and  C10_17 
ROOT
HETATM    1  S1  UNL     1     -41.288  13.235  48.258  1.00  0.00    -0.215 SA
HETATM    2  O1  UNL     1     -41.307  10.490  48.104  1.00  0.00     0.000 OA
HETATM    3  O2  UNL     1     -41.315  13.755  47.618  1.00  0.00     0.000 OA
HETATM    4  O3  UNL     1     -41.262  12.716  48.899  1.00  0.00     0.000 OA
HETATM    5  N1  UNL     1     -41.314  12.594  47.739  1.00  0.00     0.000 N 
HETATM    6  N2  UNL     1     -41.327  11.132  47.586  1.00  0.00     0.000 N 
HETATM    7  N3  UNL     1     -41.186  15.799  50.333  1.00  0.00    -0.273 NA
HETATM    8  C1  UNL     1     -41.263  13.876  48.777  1.00  0.00     0.061 A 
HETATM    9  C2  UNL     1     -41.273  14.646  48.482  1.00  0.00     0.061 A 
HETATM   10  C3  UNL     1     -41.227  13.747  49.590  1.00  0.00     0.061 A 
HETATM   11  C4  UNL     1     -41.304  11.824  48.034  1.00  0.00     0.034 A 
HETATM   12  C5  UNL     1     -41.212  15.158  49.815  1.00  0.00     0.072 A 
HETATM   13  C6  UNL     1     -41.247  15.287  49.001  1.00  0.00     0.072 A 
HETATM   14  C7  UNL     1     -41.202  14.388  50.109  1.00  0.00     0.072 A 
HETATM   15  C8  UNL     1     -41.270  11.610  48.830  1.00  0.00     0.028 A 
HETATM   16  C9  UNL     1     -41.272  10.786  48.873  1.00  0.00     0.017 A 
HETATM   17  C10 UNL     1     -41.243  10.336  49.565  1.00  0.00     0.010 A 
ENDROOT
TORSDOF 21
ENDMDL
