MODEL 1
REMARK VINA RESULT:     157.7      0.000      0.000
REMARK  27 active torsions:
REMARK  status: ('A' for Active; 'I' for Inactive)
REMARK    1  A    between atoms: CL1_1  and  N2_11 
REMARK    2  A    between atoms: CL1_1  and  C1_13 
REMARK    3  A    between atoms: CL2_2  and  N1_10 
REMARK    4  A    between atoms: CL2_2  and  C1_13 
REMARK    5  A    between atoms: CL3_3  and  C7_19 
REMARK    6  A    between atoms: S1_4  and  N2_11 
REMARK    7  A    between atoms: S1_4  and  C3_15 
REMARK    8  A    between atoms: S2_5  and  C4_16 
REMARK    9  A    between atoms: O1_6  and  C4_16 
REMARK   10  A    between atoms: O3_8  and  C8_20 
REMARK   11  A    between atoms: O4_9  and  C4_16 
REMARK   12  A    between atoms: O4_9  and  C5_17 
REMARK   13  A    between atoms: N1_10  and  C2_14 
REMARK   14  A    between atoms: N1_10  and  C6_18 
REMARK   15  A    between atoms: N2_11  and  C2_14 
REMARK   16  A    between atoms: N2_11  and  C6_18 
REMARK   17  A    between atoms: C1_13  and  C6_18 
REMARK   18  A    between atoms: C1_13  and  C2_14 
REMARK   19  A    between atoms: C2_14  and  C3_15 
REMARK   20  A    between atoms: C2_14  and  C5_17 
REMARK   21  A    between atoms: C2_14  and  C7_19 
REMARK   22  A    between atoms: C3_15  and  C4_16 
REMARK   23  A    between atoms: C3_15  and  C8_20 
REMARK   24  A    between atoms: C4_16  and  C5_17 
REMARK   25  A    between atoms: C4_16  and  C8_20 
REMARK   26  A    between atoms: C5_17  and  C7_19 
REMARK   27  A    between atoms: C7_19  and  C8_20 
ROOT
HETATM    1 CL1  UNL     1     -37.695  15.731  49.878  1.00  0.00    -0.157 Cl
HETATM    2 CL2  UNL     1     -36.998  14.608  50.423  1.00  0.00    -0.157 Cl
HETATM    3  C6  UNL     1     -37.662  14.924  50.049  1.00  0.00     0.162 A 
ENDROOT
BRANCH   1   4
HETATM    4  N2  UNL     1     -38.958  14.749  49.473  1.00  0.00     0.000 N 
HETATM    5  C1  UNL     1     -39.101  15.479  49.830  1.00  0.00     0.128 A 
HETATM    6  N1  UNL     1     -39.876  15.718  49.984  1.00  0.00     0.000 N 
HETATM    7  S1  UNL     1     -40.506  15.228  49.781  1.00  0.00    -0.166 SA
HETATM    8  C3  UNL     1     -39.590  14.259  49.271  1.00  0.00     0.095 A 
HETATM    9  O2  UNL     1     -41.035  15.788  50.076  1.00  0.00     0.000 OA
HETATM   10  O1  UNL     1     -41.317  15.083  49.754  1.00  0.00     0.000 OA
HETATM   11  C2  UNL     1     -40.364  14.498  49.425  1.00  0.00     0.095 A 
HETATM   12  C4  UNL     1     -41.030  13.996  49.219  1.00  0.00     0.098 A 
HETATM   13  C7  UNL     1     -39.428  13.500  48.900  1.00  0.00     0.092 A 
BRANCH  11  14
HETATM   14  C5  UNL     1     -40.888  13.234  48.847  1.00  0.00     0.104 A 
HETATM   15  S2  UNL     1     -41.101  12.778  48.194  1.00  0.00    -0.094 SA
HETATM   16  O3  UNL     1     -41.314  12.159  48.696  1.00  0.00     0.000 OA
HETATM   17  O4  UNL     1     -40.889  13.398  47.692  1.00  0.00     0.000 OA
HETATM   18  N3  UNL     1     -41.315  12.322  47.541  1.00  0.00    -0.077 NA
HETATM   19 CL3  UNL     1     -41.258  12.152  49.756  1.00  0.00    -0.228 Cl
HETATM   20  C8  UNL     1     -40.967  12.916  49.641  1.00  0.00     0.104 A 
ENDBRANCH  11  14
ENDBRANCH   1   4
TORSDOF 27
ENDMDL
