MODEL 1
REMARK VINA RESULT:     445.0      0.000      0.000
REMARK WARNING: 32 MAX_TORS EXCEEDED!!!
REMARK  45 active torsions:
REMARK  status: ('A' for Active; 'I' for Inactive)
REMARK    1  A    between atoms: CL1_1  and  O4_6 
REMARK    2  A    between atoms: CL1_1  and  C3_10 
REMARK    3  A    between atoms: CL1_1  and  C10_17 
REMARK    4  A    between atoms: CL1_1  and  C15_22 
REMARK    5  A    between atoms: CL1_1  and  C17_24 
REMARK    6  A    between atoms: O1_3  and  C8_15 
REMARK    7  A    between atoms: O2_4  and  C3_10 
REMARK    8  A    between atoms: O2_4  and  C9_16 
REMARK    9  A    between atoms: O3_5  and  C4_11 
REMARK   10  A    between atoms: O3_5  and  C12_19 
REMARK   11  A    between atoms: O3_5  and  C14_21 
REMARK   12  A    between atoms: O4_6  and  C11_18 
REMARK   13  A    between atoms: O4_6  and  C17_24 
REMARK   14  A    between atoms: N1_7  and  C3_10 
REMARK   15  A    between atoms: C1_8  and  C6_13 
REMARK   16  A    between atoms: C1_8  and  C7_14 
REMARK   17  A    between atoms: C1_8  and  C10_17 
REMARK   18  A    between atoms: C1_8  and  C11_18 
REMARK   19  A    between atoms: C2_9  and  C6_13 
REMARK   20  A    between atoms: C2_9  and  C8_15 
REMARK   21  A    between atoms: C2_9  and  C12_19 
REMARK   22  A    between atoms: C3_10  and  C6_13 
REMARK   23  A    between atoms: C3_10  and  C10_17 
REMARK   24  A    between atoms: C3_10  and  C4_11 
REMARK   25  A    between atoms: C3_10  and  C5_12 
REMARK   26  A    between atoms: C3_10  and  C9_16 
REMARK   27  A    between atoms: C3_10  and  C11_18 
REMARK   28  A    between atoms: C4_11  and  C7_14 
REMARK   29  A    between atoms: C4_11  and  C10_17 
REMARK   30  A    between atoms: C4_11  and  C13_20 
REMARK   31  A    between atoms: C4_11  and  C15_22 
REMARK   32  A    between atoms: C5_12  and  C7_14 
REMARK   33  A    between atoms: C6_13  and  C10_17 
REMARK   34  A    between atoms: C7_14  and  C8_15 
REMARK   35  A    between atoms: C7_14  and  C12_19 
REMARK   36  A    between atoms: C9_16  and  C10_17 
REMARK   37  A    between atoms: C10_17  and  C11_18 
REMARK   38  A    between atoms: C11_18  and  C13_20 
REMARK   39  A    between atoms: C11_18  and  C12_19 
REMARK   40  A    between atoms: C11_18  and  C14_21 
REMARK   41  A    between atoms: C11_18  and  C15_22 
REMARK   42  A    between atoms: C12_19  and  C13_20 
REMARK   43  A    between atoms: C12_19  and  C15_22 
REMARK   44  A    between atoms: C13_20  and  C14_21 
REMARK   45  A    between atoms: C14_21  and  C15_22 
ROOT
HETATM    1 CL1  UNL     1     -40.297  14.217  49.501  1.00  0.00    -0.283 Cl
HETATM    2 CL2  UNL     1     -40.231  15.303  49.346  1.00  0.00    -0.257 Cl
HETATM    3  O1  UNL     1     -36.916  12.345  48.177  1.00  0.00     0.000 OA
HETATM    4  O3  UNL     1     -37.592  13.593  48.342  1.00  0.00     0.000 OA
HETATM    5  N1  UNL     1     -38.843  11.166  49.187  1.00  0.00     0.000 N 
HETATM    6  C1  UNL     1     -38.877  12.807  49.016  1.00  0.00     0.033 A 
HETATM    7  C2  UNL     1     -38.218  12.380  48.765  1.00  0.00     0.024 A 
HETATM    8  C3  UNL     1     -39.520  12.415  49.353  1.00  0.00     0.023 A 
HETATM    9  C4  UNL     1     -38.894  13.627  48.930  1.00  0.00     0.039 A 
HETATM   10  C5  UNL     1     -38.201  11.560  48.851  1.00  0.00     0.015 A 
HETATM   11  C6  UNL     1     -39.503  11.594  49.439  1.00  0.00     0.022 A 
HETATM   12  C7  UNL     1     -37.575  12.772  48.428  1.00  0.00     0.022 A 
HETATM   13  C8  UNL     1     -37.541  11.131  48.600  1.00  0.00     0.005 A 
HETATM   14  C9  UNL     1     -40.146  11.201  49.776  1.00  0.00     0.020 A 
HETATM   15  C11 UNL     1     -39.554  14.055  49.181  1.00  0.00     0.043 A 
HETATM   16  C12 UNL     1     -38.252  14.021  48.593  1.00  0.00     0.050 A 
HETATM   17  C13 UNL     1     -39.571  14.876  49.095  1.00  0.00     0.056 A 
HETATM   18  C14 UNL     1     -38.269  14.841  48.507  1.00  0.00     0.060 A 
HETATM   19  C15 UNL     1     -38.928  15.268  48.758  1.00  0.00     0.056 A 
HETATM   20  C16 UNL     1     -36.274  12.737  47.841  1.00  0.00     0.027 A 
HETATM   21  C18 UNL     1     -35.614  12.310  47.589  1.00  0.00    -0.031 A 
ENDROOT
BRANCH   1  22
HETATM   22  O4  UNL     1     -40.676  13.483  49.756  1.00  0.00     0.000 OA
HETATM   23  C10 UNL     1     -40.631  12.918  49.157  1.00  0.00     0.031 A 
HETATM   24  O2  UNL     1     -41.033  12.485  49.731  1.00  0.00     0.000 OA
HETATM   25  C17 UNL     1     -41.212  12.831  50.458  1.00  0.00     0.046 A 
ENDBRANCH   1  22
TORSDOF 45
ENDMDL
