MODEL 1
REMARK VINA RESULT:     428.3      0.000      0.000
REMARK  25 active torsions:
REMARK  status: ('A' for Active; 'I' for Inactive)
REMARK    1  A    between atoms: O1_1  and  C3_9 
REMARK    2  A    between atoms: O2_2  and  C4_10 
REMARK    3  A    between atoms: O2_2  and  C10_16 
REMARK    4  A    between atoms: O3_3  and  C3_9 
REMARK    5  A    between atoms: C1_7  and  C2_8 
REMARK    6  A    between atoms: C1_7  and  C5_11 
REMARK    7  A    between atoms: C1_7  and  C9_15 
REMARK    8  A    between atoms: C2_8  and  C3_9 
REMARK    9  A    between atoms: C2_8  and  C4_10 
REMARK   10  A    between atoms: C3_9  and  C5_11 
REMARK   11  A    between atoms: C3_9  and  C8_14 
REMARK   12  A    between atoms: C4_10  and  C5_11 
REMARK   13  A    between atoms: C4_10  and  C6_12 
REMARK   14  A    between atoms: C4_10  and  C8_14 
REMARK   15  A    between atoms: C4_10  and  C16_22 
REMARK   16  A    between atoms: C5_11  and  C6_12 
REMARK   17  A    between atoms: C5_11  and  C10_16 
REMARK   18  A    between atoms: C5_11  and  C11_17 
REMARK   19  A    between atoms: C6_12  and  C7_13 
REMARK   20  A    between atoms: C6_12  and  C9_15 
REMARK   21  A    between atoms: C7_13  and  C15_21 
REMARK   22  A    between atoms: C11_17  and  C16_22 
REMARK   23  A    between atoms: C13_19  and  C15_21 
REMARK   24  A    between atoms: C13_19  and  C17_23 
REMARK   25  A    between atoms: C14_20  and  C15_21 
ROOT
HETATM    1  O1  UNL     1     -35.386  10.626  48.853  1.00  0.00     0.000 OA
HETATM    2  O2  UNL     1     -37.522  13.259  49.740  1.00  0.00     0.000 OA
HETATM    3  O3  UNL     1     -37.459  11.424  47.550  1.00  0.00     0.000 OA
HETATM    4  O4  UNL     1     -36.116  10.285  47.629  1.00  0.00    -0.369 OA
HETATM    5  O5  UNL     1     -41.263  15.650  48.559  1.00  0.00    -0.315 OA
HETATM    6  O6  UNL     1     -40.263  15.582  49.578  1.00  0.00    -0.315 OA
HETATM    7  C1  UNL     1     -36.137  11.639  49.272  1.00  0.00     0.039 A 
HETATM    8  C2  UNL     1     -37.491  12.341  48.644  1.00  0.00     0.025 A 
HETATM    9  C3  UNL     1     -36.460  11.355  48.568  1.00  0.00     0.057 A 
HETATM   10  C4  UNL     1     -36.491  12.273  49.663  1.00  0.00     0.025 A 
HETATM   11  C5  UNL     1     -37.169  12.625  49.349  1.00  0.00     0.022 A 
HETATM   12  C6  UNL     1     -37.136  11.707  48.254  1.00  0.00     0.039 A 
HETATM   13  C7  UNL     1     -38.168  12.693  48.331  1.00  0.00     0.017 A 
HETATM   14  C8  UNL     1     -35.475  11.186  49.446  1.00  0.00     0.046 A 
HETATM   15  C9  UNL     1     -35.994  10.731  48.312  1.00  0.00     0.093 A 
HETATM   16  C10 UNL     1     -38.523  13.327  48.721  1.00  0.00     0.021 A 
HETATM   17  C11 UNL     1     -36.168  12.556  50.368  1.00  0.00     0.008 A 
HETATM   18  C12 UNL     1     -39.199  13.678  48.407  1.00  0.00     0.053 A 
HETATM   19  C13 UNL     1     -39.554  14.312  48.797  1.00  0.00     0.096 A 
HETATM   20  C14 UNL     1     -40.231  14.664  48.483  1.00  0.00     0.166 A 
HETATM   21  C15 UNL     1     -39.522  13.395  47.702  1.00  0.00     0.053 A 
HETATM   22  C16 UNL     1     -37.200  13.542  50.444  1.00  0.00     0.005 A 
HETATM   23  C17 UNL     1     -40.585  15.298  48.873  1.00  0.00     0.234 A 
ENDROOT
TORSDOF 25
ENDMDL
