MODEL 1
REMARK VINA RESULT:     397.3      0.000      0.000
REMARK  23 active torsions:
REMARK  status: ('A' for Active; 'I' for Inactive)
REMARK    1  A    between atoms: O1_1  and  C7_13 
REMARK    2  A    between atoms: N1_5  and  C14_20 
REMARK    3  A    between atoms: N2_6  and  C14_20 
REMARK    4  A    between atoms: C2_8  and  C11_17 
REMARK    5  A    between atoms: C3_9  and  C7_13 
REMARK    6  A    between atoms: C3_9  and  C11_17 
REMARK    7  A    between atoms: C3_9  and  C12_18 
REMARK    8  A    between atoms: C4_10  and  C5_11 
REMARK    9  A    between atoms: C4_10  and  C6_12 
REMARK   10  A    between atoms: C4_10  and  C8_14 
REMARK   11  A    between atoms: C4_10  and  C10_16 
REMARK   12  A    between atoms: C5_11  and  C6_12 
REMARK   13  A    between atoms: C5_11  and  C7_13 
REMARK   14  A    between atoms: C5_11  and  C8_14 
REMARK   15  A    between atoms: C6_12  and  C11_17 
REMARK   16  A    between atoms: C6_12  and  C9_15 
REMARK   17  A    between atoms: C8_14  and  C12_18 
REMARK   18  A    between atoms: C9_15  and  C10_16 
REMARK   19  A    between atoms: C12_18  and  C13_19 
REMARK   20  A    between atoms: C13_19  and  C15_21 
REMARK   21  A    between atoms: C13_19  and  C16_22 
REMARK   22  A    between atoms: C14_20  and  C15_21 
REMARK   23  A    between atoms: C15_21  and  C16_22 
ROOT
HETATM    1  O1  UNL     1     -39.206  12.360  49.708  1.00  0.00     0.000 OA
HETATM    2  O2  UNL     1     -37.413  13.628  48.567  1.00  0.00     0.000 OA
HETATM    3  O3  UNL     1     -39.262  15.816  48.052  1.00  0.00    -0.309 OA
HETATM    4  O4  UNL     1     -40.616  15.721  48.495  1.00  0.00    -0.309 OA
HETATM    5  N1  UNL     1     -40.156  13.432  49.468  1.00  0.00     0.000 N 
HETATM    6  N2  UNL     1     -41.085  14.530  49.210  1.00  0.00    -0.173 NA
HETATM    7  C1  UNL     1     -36.133  11.036  49.445  1.00  0.00     0.000 A 
HETATM    8  C2  UNL     1     -36.890  11.357  49.512  1.00  0.00     0.000 A 
HETATM    9  C3  UNL     1     -37.853  12.459  49.261  1.00  0.00     0.008 A 
HETATM   10  C4  UNL     1     -37.061  12.133  49.187  1.00  0.00     0.001 A 
HETATM   11  C5  UNL     1     -38.450  12.037  49.642  1.00  0.00     0.008 A 
HETATM   12  C6  UNL     1     -37.512  10.917  49.908  1.00  0.00     0.000 A 
HETATM   13  C7  UNL     1     -38.767  13.529  49.013  1.00  0.00     0.056 A 
HETATM   14  C8  UNL     1     -38.011  13.205  48.947  1.00  0.00     0.018 A 
HETATM   15  C9  UNL     1     -35.971  10.290  49.758  1.00  0.00     0.000 A 
HETATM   16  C10 UNL     1     -35.537  11.461  49.064  1.00  0.00     0.000 A 
HETATM   17  C11 UNL     1     -38.298  11.258  49.973  1.00  0.00     0.001 A 
HETATM   18  C12 UNL     1     -39.365  13.106  49.393  1.00  0.00     0.036 A 
HETATM   19  C13 UNL     1     -38.920  14.306  48.681  1.00  0.00     0.110 A 
HETATM   20  C14 UNL     1     -39.706  14.649  48.747  1.00  0.00     0.182 A 
HETATM   21  C15 UNL     1     -40.328  14.209  49.143  1.00  0.00     0.151 A 
HETATM   22  C16 UNL     1     -39.861  15.395  48.431  1.00  0.00     0.219 A 
ENDROOT
TORSDOF 23
ENDMDL
