MODEL 1
REMARK VINA RESULT:       8.2      0.000      0.000
REMARK  6 active torsions:
REMARK  status: ('A' for Active; 'I' for Inactive)
REMARK    1  A    between atoms: CL1_1  and  F2_4 
REMARK    2  A    between atoms: CL1_1  and  C1_6 
REMARK    3  A    between atoms: F1_3  and  C2_7 
REMARK    4  A    between atoms: F1_3  and  C3_8 
REMARK    5  A    between atoms: F2_4  and  C2_7 
REMARK    6  A    between atoms: C1_6  and  C2_7 
ROOT
HETATM    1 CL1  UNL     1     -41.248  15.523  49.014  1.00  0.00    -0.020 Cl
HETATM    2 CL2  UNL     1     -41.195  15.497  50.442  1.00  0.00    -0.037 Cl
HETATM    3  F1  UNL     1     -39.967  15.665  50.510  1.00  0.00    -0.410 F 
HETATM    4  F2  UNL     1     -40.027  15.694  48.861  1.00  0.00    -0.337 F 
HETATM    5  O1  UNL     1     -39.180  15.793  49.658  1.00  0.00     0.000 OA
HETATM    6  C1  UNL     1     -39.996  15.680  49.686  1.00  0.00     0.283 A 
HETATM    7  C2  UNL     1     -40.813  15.566  49.714  1.00  0.00     0.315 A 
HETATM    8  C3  UNL     1     -38.745  15.836  50.357  1.00  0.00     0.206 A 
ENDROOT
TORSDOF 6
ENDMDL
MODEL 2
REMARK VINA RESULT:      10.5      1.455      1.748
REMARK  6 active torsions:
REMARK  status: ('A' for Active; 'I' for Inactive)
REMARK    1  A    between atoms: CL1_1  and  F2_4 
REMARK    2  A    between atoms: CL1_1  and  C1_6 
REMARK    3  A    between atoms: F1_3  and  C2_7 
REMARK    4  A    between atoms: F1_3  and  C3_8 
REMARK    5  A    between atoms: F2_4  and  C2_7 
REMARK    6  A    between atoms: C1_6  and  C2_7 
ROOT
HETATM    1 CL1  UNL     1     -38.690  15.829  48.959  1.00  0.00    -0.020 Cl
HETATM    2 CL2  UNL     1     -38.656  15.811  50.388  1.00  0.00    -0.037 Cl
HETATM    3  F1  UNL     1     -39.890  15.803  50.527  1.00  0.00    -0.410 F 
HETATM    4  F2  UNL     1     -39.929  15.824  48.878  1.00  0.00    -0.337 F 
HETATM    5  O1  UNL     1     -40.734  15.809  49.722  1.00  0.00     0.000 OA
HETATM    6  C1  UNL     1     -39.910  15.814  49.703  1.00  0.00     0.283 A 
HETATM    7  C2  UNL     1     -39.085  15.818  49.684  1.00  0.00     0.315 A 
HETATM    8  C3  UNL     1     -41.130  15.798  50.446  1.00  0.00     0.206 A 
ENDROOT
TORSDOF 6
ENDMDL
