MODEL 1
REMARK VINA RESULT:      28.6      0.000      0.000
REMARK  11 active torsions:
REMARK  status: ('A' for Active; 'I' for Inactive)
REMARK    1  A    between atoms: S1_1  and  C1_6 
REMARK    2  A    between atoms: N1_2  and  N3_4 
REMARK    3  A    between atoms: N2_3  and  N4_5 
REMARK    4  A    between atoms: N3_4  and  C4_9 
REMARK    5  A    between atoms: N4_5  and  C5_10 
REMARK    6  A    between atoms: N4_5  and  C1_6 
REMARK    7  A    between atoms: C1_6  and  C3_8 
REMARK    8  A    between atoms: C1_6  and  C5_10 
REMARK    9  A    between atoms: C2_7  and  C3_8 
REMARK   10  A    between atoms: C2_7  and  C4_9 
REMARK   11  A    between atoms: C3_8  and  C5_10 
ROOT
HETATM    1  S1  UNL     1     -41.326  15.145  50.528  1.00  0.00    -0.076 SA
HETATM    2  N1  UNL     1     -39.611  15.662  50.520  1.00  0.00     0.000 N 
HETATM    3  N2  UNL     1     -39.937  15.222  48.481  1.00  0.00     0.201 N 
HETATM    4  N3  UNL     1     -38.865  15.703  49.422  1.00  0.00     0.203 N 
HETATM    5  N4  UNL     1     -41.186  14.952  49.120  1.00  0.00     0.000 N 
HETATM    6  C1  UNL     1     -40.076  15.416  49.891  1.00  0.00     0.387 A 
HETATM    7  C2  UNL     1     -39.613  15.442  49.209  1.00  0.00     0.413 A 
HETATM    8  C3  UNL     1     -40.863  15.171  49.846  1.00  0.00     0.197 A 
HETATM    9  C4  UNL     1     -38.864  15.838  50.230  1.00  0.00     0.347 A 
HETATM   10  C5  UNL     1     -40.723  14.978  48.437  1.00  0.00     0.328 A 
ENDROOT
TORSDOF 11
ENDMDL
MODEL 2
REMARK VINA RESULT:      31.2      0.509      1.759
REMARK  11 active torsions:
REMARK  status: ('A' for Active; 'I' for Inactive)
REMARK    1  A    between atoms: S1_1  and  C1_6 
REMARK    2  A    between atoms: N1_2  and  N3_4 
REMARK    3  A    between atoms: N2_3  and  N4_5 
REMARK    4  A    between atoms: N3_4  and  C4_9 
REMARK    5  A    between atoms: N4_5  and  C5_10 
REMARK    6  A    between atoms: N4_5  and  C1_6 
REMARK    7  A    between atoms: C1_6  and  C3_8 
REMARK    8  A    between atoms: C1_6  and  C5_10 
REMARK    9  A    between atoms: C2_7  and  C3_8 
REMARK   10  A    between atoms: C2_7  and  C4_9 
REMARK   11  A    between atoms: C3_8  and  C5_10 
ROOT
HETATM    1  S1  UNL     1     -41.326  15.299  50.513  1.00  0.00    -0.076 SA
HETATM    2  N1  UNL     1     -41.216  15.364  48.726  1.00  0.00     0.000 N 
HETATM    3  N2  UNL     1     -39.238  15.833  49.296  1.00  0.00     0.201 N 
HETATM    4  N3  UNL     1     -40.096  15.651  48.073  1.00  0.00     0.203 N 
HETATM    5  N4  UNL     1     -39.938  15.636  50.526  1.00  0.00     0.000 N 
HETATM    6  C1  UNL     1     -40.627  15.495  49.282  1.00  0.00     0.387 A 
HETATM    7  C2  UNL     1     -39.931  15.674  48.877  1.00  0.00     0.413 A 
HETATM    8  C3  UNL     1     -40.630  15.477  50.107  1.00  0.00     0.197 A 
HETATM    9  C4  UNL     1     -40.888  15.461  47.981  1.00  0.00     0.347 A 
HETATM   10  C5  UNL     1     -39.242  15.814  50.121  1.00  0.00     0.328 A 
ENDROOT
TORSDOF 11
ENDMDL
