MODEL 1
REMARK VINA RESULT:     286.2      0.000      0.000
REMARK  15 active torsions:
REMARK  status: ('A' for Active; 'I' for Inactive)
REMARK    1  A    between atoms: N2_3  and  C8_12 
REMARK    2  A    between atoms: N3_4  and  C12_16 
REMARK    3  A    between atoms: C2_6  and  C3_7 
REMARK    4  A    between atoms: C2_6  and  C6_10 
REMARK    5  A    between atoms: C3_7  and  C4_8 
REMARK    6  A    between atoms: C3_7  and  C5_9 
REMARK    7  A    between atoms: C5_9  and  C6_10 
REMARK    8  A    between atoms: C8_12  and  C13_17 
REMARK    9  A    between atoms: C9_13  and  C10_14 
REMARK   10  A    between atoms: C9_13  and  C12_16 
REMARK   11  A    between atoms: C9_13  and  C13_17 
REMARK   12  A    between atoms: C10_14  and  C11_15 
REMARK   13  A    between atoms: C10_14  and  C13_17 
REMARK   14  A    between atoms: C11_15  and  C12_16 
REMARK   15  A    between atoms: C12_16  and  C13_17 
ROOT
HETATM    1  O1  UNL     1     -37.978  11.706  48.932  1.00  0.00     0.000 OA
HETATM    2  N1  UNL     1     -37.772  14.494  49.949  1.00  0.00     0.000 N 
HETATM    3  N2  UNL     1     -38.862  12.820  49.069  1.00  0.00     0.000 N 
HETATM    4  N3  UNL     1     -41.178  10.253  47.540  1.00  0.00    -0.280 NA
HETATM    5  C1  UNL     1     -38.385  14.047  49.624  1.00  0.00     0.000 A 
HETATM    6  C2  UNL     1     -37.908  15.274  50.180  1.00  0.00     0.000 A 
HETATM    7  C3  UNL     1     -37.024  14.160  50.043  1.00  0.00     0.000 A 
HETATM    8  C4  UNL     1     -38.249  13.267  49.394  1.00  0.00     0.000 A 
HETATM    9  C5  UNL     1     -37.295  15.721  50.504  1.00  0.00     0.000 A 
HETATM   10  C6  UNL     1     -36.411  14.607  50.367  1.00  0.00     0.000 A 
HETATM   11  C7  UNL     1     -38.727  12.040  48.838  1.00  0.00     0.011 A 
HETATM   12  C8  UNL     1     -39.340  11.594  48.514  1.00  0.00     0.038 A 
HETATM   13  C9  UNL     1     -40.088  11.927  48.420  1.00  0.00     0.038 A 
HETATM   14  C10 UNL     1     -39.204  10.812  48.283  1.00  0.00     0.038 A 
HETATM   15  C11 UNL     1     -40.701  11.480  48.095  1.00  0.00     0.052 A 
HETATM   16  C12 UNL     1     -39.817  10.366  47.958  1.00  0.00     0.052 A 
HETATM   17  C13 UNL     1     -40.565  10.700  47.865  1.00  0.00     0.052 A 
ENDROOT
TORSDOF 15
ENDMDL
