MODEL 1
REMARK VINA RESULT:     180.5      0.000      0.000
REMARK  28 active torsions:
REMARK  status: ('A' for Active; 'I' for Inactive)
REMARK    1  A    between atoms: O1_1  and  C1_7 
REMARK    2  A    between atoms: O4_4  and  C3_9 
REMARK    3  A    between atoms: N1_5  and  C6_12 
REMARK    4  A    between atoms: N1_5  and  C4_10 
REMARK    5  A    between atoms: N1_5  and  C7_13 
REMARK    6  A    between atoms: N1_5  and  C8_14 
REMARK    7  A    between atoms: N2_6  and  C1_7 
REMARK    8  A    between atoms: N2_6  and  C3_9 
REMARK    9  A    between atoms: C1_7  and  C4_10 
REMARK   10  A    between atoms: C1_7  and  C6_12 
REMARK   11  A    between atoms: C1_7  and  C9_15 
REMARK   12  A    between atoms: C2_8  and  C4_10 
REMARK   13  A    between atoms: C2_8  and  C9_15 
REMARK   14  A    between atoms: C3_9  and  C9_15 
REMARK   15  A    between atoms: C3_9  and  C4_10 
REMARK   16  A    between atoms: C4_10  and  C9_15 
REMARK   17  A    between atoms: C5_11  and  C6_12 
REMARK   18  A    between atoms: C5_11  and  C8_14 
REMARK   19  A    between atoms: C6_12  and  C7_13 
REMARK   20  A    between atoms: C7_13  and  C8_14 
REMARK   21  A    between atoms: C7_13  and  C11_17 
REMARK   22  A    between atoms: C7_13  and  C13_19 
REMARK   23  A    between atoms: C8_14  and  C10_16 
REMARK   24  A    between atoms: C8_14  and  C12_18 
REMARK   25  A    between atoms: C10_16  and  C11_17 
REMARK   26  A    between atoms: C10_16  and  C13_19 
REMARK   27  A    between atoms: C11_17  and  C12_18 
REMARK   28  A    between atoms: C12_18  and  C13_19 
ROOT
HETATM    1  O1  UNL     1     -39.502  15.707  50.122  1.00  0.00     0.000 OA
HETATM    2  O2  UNL     1     -38.525  15.740  50.504  1.00  0.00     0.000 OA
HETATM    3  O4  UNL     1     -41.327  15.620  47.924  1.00  0.00     0.000 OA
HETATM    4  N1  UNL     1     -38.233  15.725  49.068  1.00  0.00     0.000 N 
HETATM    5  N2  UNL     1     -40.415  15.663  49.023  1.00  0.00     0.000 N 
HETATM    6  C1  UNL     1     -39.007  15.699  48.782  1.00  0.00     0.021 A 
HETATM    7  C2  UNL     1     -39.146  15.682  47.968  1.00  0.00     0.002 A 
HETATM    8  C3  UNL     1     -39.919  15.655  47.682  1.00  0.00     0.002 A 
HETATM    9  C4  UNL     1     -39.642  15.690  49.310  1.00  0.00     0.002 A 
HETATM   10  C5  UNL     1     -38.013  15.744  49.858  1.00  0.00     0.042 A 
HETATM   11  C7  UNL     1     -37.193  15.768  49.892  1.00  0.00     0.041 A 
HETATM   12  C9  UNL     1     -40.553  15.646  48.210  1.00  0.00     0.002 A 
HETATM   13  C10 UNL     1     -36.667  15.793  50.527  1.00  0.00     0.029 A 
HETATM   14  C12 UNL     1     -35.854  15.813  50.388  1.00  0.00     0.028 A 
ENDROOT
BRANCH  10  15
HETATM   15  C6  UNL     1     -37.552  15.737  48.612  1.00  0.00     0.076 A 
HETATM   16  O3  UNL     1     -37.520  15.728  47.788  1.00  0.00    -0.371 OA
HETATM   17  C8  UNL     1     -36.907  15.752  49.119  1.00  0.00     0.056 A 
HETATM   18  C11 UNL     1     -36.094  15.763  48.980  1.00  0.00     0.041 A 
HETATM   19  C13 UNL     1     -35.567  15.777  49.615  1.00  0.00     0.028 A 
ENDBRANCH  10  15
TORSDOF 28
ENDMDL
