MODEL 1
REMARK VINA RESULT:      41.1      0.000      0.000
REMARK  30 active torsions:
REMARK  status: ('A' for Active; 'I' for Inactive)
REMARK    1  A    between atoms: N1_1  and  C9_10 
REMARK    2  A    between atoms: C1_2  and  C9_10 
REMARK    3  A    between atoms: C1_2  and  C12_13 
REMARK    4  A    between atoms: C2_3  and  C4_5 
REMARK    5  A    between atoms: C2_3  and  C6_7 
REMARK    6  A    between atoms: C2_3  and  C8_9 
REMARK    7  A    between atoms: C2_3  and  C10_11 
REMARK    8  A    between atoms: C3_4  and  C6_7 
REMARK    9  A    between atoms: C3_4  and  C4_5 
REMARK   10  A    between atoms: C3_4  and  C5_6 
REMARK   11  A    between atoms: C3_4  and  C9_10 
REMARK   12  A    between atoms: C3_4  and  C12_13 
REMARK   13  A    between atoms: C4_5  and  C9_10 
REMARK   14  A    between atoms: C4_5  and  C10_11 
REMARK   15  A    between atoms: C4_5  and  C5_6 
REMARK   16  A    between atoms: C4_5  and  C6_7 
REMARK   17  A    between atoms: C6_7  and  C7_8 
REMARK   18  A    between atoms: C6_7  and  C8_9 
REMARK   19  A    between atoms: C6_7  and  C9_10 
REMARK   20  A    between atoms: C6_7  and  C10_11 
REMARK   21  A    between atoms: C6_7  and  C11_12 
REMARK   22  A    between atoms: C6_7  and  C12_13 
REMARK   23  A    between atoms: C7_8  and  C9_10 
REMARK   24  A    between atoms: C7_8  and  C10_11 
REMARK   25  A    between atoms: C7_8  and  C12_13 
REMARK   26  A    between atoms: C8_9  and  C9_10 
REMARK   27  A    between atoms: C8_9  and  C10_11 
REMARK   28  A    between atoms: C8_9  and  C11_12 
REMARK   29  A    between atoms: C9_10  and  C10_11 
REMARK   30  A    between atoms: C9_10  and  C12_13 
ROOT
HETATM    1  N1  UNL     1     -38.725  15.811  48.448  1.00  0.00     0.000 N 
HETATM    2  C1  UNL     1     -40.748  15.732  49.894  1.00  0.00     0.000 A 
HETATM    3  C2  UNL     1     -39.423  15.793  49.436  1.00  0.00     0.000 A 
HETATM    4  C3  UNL     1     -39.275  15.794  49.082  1.00  0.00     0.000 A 
HETATM    5  C4  UNL     1     -40.480  15.719  48.517  1.00  0.00     0.000 A 
HETATM    6  C5  UNL     1     -39.954  15.777  50.048  1.00  0.00     0.000 A 
HETATM    7  C6  UNL     1     -39.849  15.777  49.744  1.00  0.00     0.000 A 
HETATM    8  C7  UNL     1     -38.628  15.839  49.591  1.00  0.00     0.000 A 
HETATM    9  C8  UNL     1     -41.011  15.703  49.129  1.00  0.00     0.000 A 
HETATM   10  C9  UNL     1     -39.785  15.761  48.785  1.00  0.00     0.000 A 
HETATM   11  C10 UNL     1     -39.586  15.761  48.281  1.00  0.00     0.000 A 
HETATM   12  C11 UNL     1     -41.298  15.715  50.528  1.00  0.00     0.000 A 
HETATM   13  C12 UNL     1     -39.364  15.813  50.273  1.00  0.00     0.000 A 
ENDROOT
TORSDOF 30
ENDMDL
