MODEL 1
REMARK VINA RESULT:     509.8      0.000      0.000
REMARK WARNING: 32 MAX_TORS EXCEEDED!!!
REMARK  39 active torsions:
REMARK  status: ('A' for Active; 'I' for Inactive)
REMARK    1  A    between atoms: O1_1  and  C10_18 
REMARK    2  A    between atoms: O2_2  and  C11_19 
REMARK    3  A    between atoms: O3_3  and  C4_12 
REMARK    4  A    between atoms: O3_3  and  C9_17 
REMARK    5  A    between atoms: O3_3  and  C14_22 
REMARK    6  A    between atoms: O4_4  and  C4_12 
REMARK    7  A    between atoms: O4_4  and  C7_15 
REMARK    8  A    between atoms: O4_4  and  C13_21 
REMARK    9  A    between atoms: N1_7  and  C3_11 
REMARK   10  A    between atoms: N2_8  and  C7_15 
REMARK   11  A    between atoms: C1_9  and  C6_14 
REMARK   12  A    between atoms: C1_9  and  C8_16 
REMARK   13  A    between atoms: C1_9  and  C12_20 
REMARK   14  A    between atoms: C2_10  and  C6_14 
REMARK   15  A    between atoms: C2_10  and  C9_17 
REMARK   16  A    between atoms: C2_10  and  C10_18 
REMARK   17  A    between atoms: C3_11  and  C6_14 
REMARK   18  A    between atoms: C3_11  and  C4_12 
REMARK   19  A    between atoms: C3_11  and  C5_13 
REMARK   20  A    between atoms: C3_11  and  C7_15 
REMARK   21  A    between atoms: C3_11  and  C11_19 
REMARK   22  A    between atoms: C4_12  and  C8_16 
REMARK   23  A    between atoms: C4_12  and  C12_20 
REMARK   24  A    between atoms: C4_12  and  C13_21 
REMARK   25  A    between atoms: C4_12  and  C15_23 
REMARK   26  A    between atoms: C5_13  and  C8_16 
REMARK   27  A    between atoms: C6_14  and  C12_20 
REMARK   28  A    between atoms: C7_15  and  C13_21 
REMARK   29  A    between atoms: C7_15  and  C9_17 
REMARK   30  A    between atoms: C7_15  and  C12_20 
REMARK   31  A    between atoms: C7_15  and  C14_22 
REMARK   32  A    between atoms: C7_15  and  C15_23 
REMARK   33  A    between atoms: C8_16  and  C9_17 
REMARK   34  A    between atoms: C8_16  and  C10_18 
REMARK   35  A    between atoms: C9_17  and  C13_21 
REMARK   36  A    between atoms: C9_17  and  C15_23 
REMARK   37  A    between atoms: C11_19  and  C12_20 
REMARK   38  A    between atoms: C13_21  and  C14_22 
REMARK   39  A    between atoms: C14_22  and  C15_23 
ROOT
HETATM    1  O1  UNL     1     -38.690  14.834  49.979  1.00  0.00     0.000 OA
HETATM    2  O2  UNL     1     -36.009  11.888  48.393  1.00  0.00     0.000 OA
HETATM    3  O3  UNL     1     -39.209  13.638  49.394  1.00  0.00     0.000 OA
HETATM    4  O4  UNL     1     -37.421  11.673  48.336  1.00  0.00     0.000 OA
HETATM    5  N1  UNL     1     -36.385  14.066  49.507  1.00  0.00     0.000 N 
HETATM    6  C1  UNL     1     -37.672  13.126  49.079  1.00  0.00     0.011 A 
HETATM    7  C2  UNL     1     -37.796  13.852  49.450  1.00  0.00     0.008 A 
HETATM    8  C3  UNL     1     -36.903  12.870  48.922  1.00  0.00     0.008 A 
HETATM    9  C4  UNL     1     -38.315  12.656  48.865  1.00  0.00     0.036 A 
HETATM   10  C5  UNL     1     -37.153  14.322  49.664  1.00  0.00     0.002 A 
HETATM   11  C6  UNL     1     -36.259  13.340  49.136  1.00  0.00     0.001 A 
HETATM   12  C7  UNL     1     -38.189  11.930  48.494  1.00  0.00     0.041 A 
HETATM   13  C8  UNL     1     -38.565  14.108  49.608  1.00  0.00     0.011 A 
HETATM   14  C9  UNL     1     -39.083  12.911  49.022  1.00  0.00     0.042 A 
HETATM   15  C10 UNL     1     -37.279  15.048  50.036  1.00  0.00     0.001 A 
HETATM   16  C11 UNL     1     -35.491  13.084  48.978  1.00  0.00     0.001 A 
HETATM   17  C12 UNL     1     -36.778  12.143  48.550  1.00  0.00     0.008 A 
HETATM   18  C14 UNL     1     -39.726  12.441  48.808  1.00  0.00     0.052 A 
HETATM   19  C16 UNL     1     -39.458  15.089  50.136  1.00  0.00     0.026 A 
HETATM   20  C17 UNL     1     -35.884  11.162  48.022  1.00  0.00     0.000 A 
HETATM   21  C18 UNL     1     -39.584  15.815  50.508  1.00  0.00    -0.031 A 
ENDROOT
BRANCH   9  22
HETATM   22  C13 UNL     1     -38.832  11.459  48.279  1.00  0.00     0.144 A 
HETATM   23  N2  UNL     1     -38.761  10.653  48.119  1.00  0.00     0.000 N 
HETATM   24  O5  UNL     1     -39.350  10.263  47.693  1.00  0.00    -0.206 OA
HETATM   25  O6  UNL     1     -38.101  10.237  48.386  1.00  0.00    -0.206 OA
HETATM   26  C15 UNL     1     -39.493  11.876  48.013  1.00  0.00     0.052 A 
ENDBRANCH   9  22
TORSDOF 39
ENDMDL
