MODEL 1
REMARK VINA RESULT:     155.9      0.000      0.000
REMARK  10 active torsions:
REMARK  status: ('A' for Active; 'I' for Inactive)
REMARK    1  A    between atoms: S1_1  and  C1_7 
REMARK    2  A    between atoms: S1_1  and  C7_13 
REMARK    3  A    between atoms: O1_3  and  O2_4 
REMARK    4  A    between atoms: O1_3  and  O3_5 
REMARK    5  A    between atoms: O2_4  and  C6_12 
REMARK    6  A    between atoms: O3_5  and  C5_11 
REMARK    7  A    between atoms: C2_8  and  C3_9 
REMARK    8  A    between atoms: C2_8  and  C4_10 
REMARK    9  A    between atoms: C3_9  and  C4_10 
REMARK   10  A    between atoms: C4_10  and  C5_11 
ROOT
HETATM    1  S1  UNL     1     -40.234  13.384  48.640  1.00  0.00    -0.184 SA
HETATM    2  P1  UNL     1     -40.441  12.737  48.170  1.00  0.00    -0.039 P 
HETATM    3  O1  UNL     1     -40.648  12.092  47.701  1.00  0.00     0.000 OA
HETATM    4  O2  UNL     1     -40.867  12.416  48.800  1.00  0.00     0.000 OA
HETATM    5  O3  UNL     1     -40.016  13.059  47.541  1.00  0.00     0.000 OA
HETATM    6  N1  UNL     1     -39.085  15.232  48.489  1.00  0.00     0.000 N 
HETATM    7  C1  UNL     1     -39.556  14.631  48.800  1.00  0.00     0.034 A 
HETATM    8  C2  UNL     1     -38.613  15.834  48.180  1.00  0.00     0.011 A 
HETATM    9  C3  UNL     1     -39.118  15.631  49.211  1.00  0.00     0.011 A 
HETATM   10  C4  UNL     1     -39.051  14.834  47.768  1.00  0.00     0.021 A 
HETATM   11  C5  UNL     1     -39.763  13.985  48.330  1.00  0.00     0.055 A 
HETATM   12  C6  UNL     1     -41.119  11.489  48.011  1.00  0.00     0.053 A 
HETATM   13  C7  UNL     1     -40.900  12.814  49.521  1.00  0.00     0.080 A 
HETATM   14  C8  UNL     1     -41.326  10.844  47.541  1.00  0.00    -0.025 A 
HETATM   15  C9  UNL     1     -41.326  12.493  50.151  1.00  0.00    -0.015 A 
ENDROOT
TORSDOF 10
ENDMDL
