MODEL 1
REMARK VINA RESULT:     395.8      0.000      0.000
REMARK  31 active torsions:
REMARK  status: ('A' for Active; 'I' for Inactive)
REMARK    1  A    between atoms: S1_1  and  C3_12 
REMARK    2  A    between atoms: S1_1  and  C4_13 
REMARK    3  A    between atoms: S1_1  and  C5_14 
REMARK    4  A    between atoms: O3_4  and  C6_15 
REMARK    5  A    between atoms: O4_5  and  C10_19 
REMARK    6  A    between atoms: O4_5  and  C12_21 
REMARK    7  A    between atoms: O5_6  and  C15_24 
REMARK    8  A    between atoms: N1_7  and  C5_14 
REMARK    9  A    between atoms: N1_7  and  C2_11 
REMARK   10  A    between atoms: N1_7  and  C4_13 
REMARK   11  A    between atoms: N1_7  and  C8_17 
REMARK   12  A    between atoms: N2_8  and  C5_14 
REMARK   13  A    between atoms: N2_8  and  C10_19 
REMARK   14  A    between atoms: C1_10  and  C5_14 
REMARK   15  A    between atoms: C2_11  and  C3_12 
REMARK   16  A    between atoms: C2_11  and  C8_17 
REMARK   17  A    between atoms: C3_12  and  C5_14 
REMARK   18  A    between atoms: C3_12  and  C6_15 
REMARK   19  A    between atoms: C3_12  and  C7_16 
REMARK   20  A    between atoms: C6_15  and  C7_16 
REMARK   21  A    between atoms: C6_15  and  C8_17 
REMARK   22  A    between atoms: C9_18  and  C11_20 
REMARK   23  A    between atoms: C9_18  and  C12_21 
REMARK   24  A    between atoms: C11_20  and  C16_25 
REMARK   25  A    between atoms: C12_21  and  C13_22 
REMARK   26  A    between atoms: C12_21  and  C15_24 
REMARK   27  A    between atoms: C12_21  and  C16_25 
REMARK   28  A    between atoms: C13_22  and  C14_23 
REMARK   29  A    between atoms: C13_22  and  C16_25 
REMARK   30  A    between atoms: C14_23  and  C15_24 
REMARK   31  A    between atoms: C15_24  and  C16_25 
ROOT
HETATM    1  S1  UNL     1     -39.922  14.600  50.182  1.00  0.00    -0.161 SA
HETATM    2  O1  UNL     1     -38.954  13.518  47.835  1.00  0.00    -0.344 OA
HETATM    3  O2  UNL     1     -40.549  14.972  47.532  1.00  0.00    -0.355 OA
HETATM    4  O3  UNL     1     -41.325  15.763  48.433  1.00  0.00     0.000 OA
HETATM    5  O4  UNL     1     -37.976  12.656  48.393  1.00  0.00     0.000 OA
HETATM    6  O5  UNL     1     -35.435  10.238  47.605  1.00  0.00     0.000 OA
HETATM    7  N1  UNL     1     -39.724  14.314  48.893  1.00  0.00     0.000 N 
HETATM    8  N2  UNL     1     -38.350  13.105  49.697  1.00  0.00     0.000 N 
HETATM    9  N3  UNL     1     -37.217  12.107  50.365  1.00  0.00    -0.277 NA
HETATM   10  C1  UNL     1     -39.475  14.144  49.661  1.00  0.00     0.101 A 
HETATM   11  C2  UNL     1     -40.449  15.053  49.736  1.00  0.00     0.080 A 
HETATM   12  C3  UNL     1     -40.326  14.876  48.939  1.00  0.00     0.103 A 
HETATM   13  C4  UNL     1     -38.916  13.603  49.364  1.00  0.00     0.134 A 
HETATM   14  C5  UNL     1     -39.167  13.775  48.590  1.00  0.00     0.142 A 
HETATM   15  C6  UNL     1     -41.042  15.586  49.526  1.00  0.00     0.078 A 
HETATM   16  C7  UNL     1     -40.749  15.386  50.429  1.00  0.00     0.064 A 
HETATM   17  C8  UNL     1     -40.733  15.203  48.302  1.00  0.00     0.135 A 
HETATM   18  C9  UNL     1     -37.880  12.631  49.212  1.00  0.00     0.084 A 
HETATM   19  C10 UNL     1     -37.314  12.132  49.546  1.00  0.00     0.060 A 
HETATM   20  C11 UNL     1     -36.844  11.659  49.061  1.00  0.00     0.039 A 
HETATM   21  C12 UNL     1     -36.940  11.684  48.242  1.00  0.00     0.036 A 
HETATM   22  C13 UNL     1     -36.278  11.160  49.395  1.00  0.00     0.027 A 
HETATM   23  C14 UNL     1     -36.470  11.209  47.757  1.00  0.00     0.018 A 
HETATM   24  C15 UNL     1     -35.807  10.686  48.909  1.00  0.00     0.018 A 
HETATM   25  C16 UNL     1     -35.904  10.711  48.090  1.00  0.00     0.018 A 
ENDROOT
TORSDOF 31
ENDMDL
