MODEL 1
REMARK VINA RESULT:     144.7      0.000      0.000
REMARK  15 active torsions:
REMARK  status: ('A' for Active; 'I' for Inactive)
REMARK    1  A    between atoms: O2_2  and  C11_15 
REMARK    2  A    between atoms: O3_3  and  C10_14 
REMARK    3  A    between atoms: C2_6  and  C4_8 
REMARK    4  A    between atoms: C2_6  and  C6_10 
REMARK    5  A    between atoms: C2_6  and  C8_12 
REMARK    6  A    between atoms: C4_8  and  C9_13 
REMARK    7  A    between atoms: C4_8  and  C11_15 
REMARK    8  A    between atoms: C5_9  and  C6_10 
REMARK    9  A    between atoms: C7_11  and  C8_12 
REMARK   10  A    between atoms: C7_11  and  C10_14 
REMARK   11  A    between atoms: C7_11  and  C11_15 
REMARK   12  A    between atoms: C8_12  and  C9_13 
REMARK   13  A    between atoms: C8_12  and  C11_15 
REMARK   14  A    between atoms: C9_13  and  C10_14 
REMARK   15  A    between atoms: C10_14  and  C11_15 
ROOT
HETATM    1  O1  UNL     1     -38.486  15.227  48.153  1.00  0.00     0.000 OA
HETATM    2  O2  UNL     1     -35.614  15.358  48.919  1.00  0.00     0.000 OA
HETATM    3  O3  UNL     1     -35.584  15.793  50.510  1.00  0.00     0.000 OA
HETATM    4  N1  UNL     1     -39.899  15.487  48.964  1.00  0.00     0.000 N 
HETATM    5  C1  UNL     1     -38.471  15.444  48.949  1.00  0.00     0.000 A 
HETATM    6  C2  UNL     1     -39.178  15.574  49.354  1.00  0.00     0.000 A 
HETATM    7  C3  UNL     1     -40.605  15.617  49.369  1.00  0.00     0.000 A 
HETATM    8  C4  UNL     1     -37.749  15.531  49.339  1.00  0.00     0.000 A 
HETATM    9  C5  UNL     1     -41.327  15.530  48.979  1.00  0.00     0.000 A 
HETATM   10  C6  UNL     1     -40.591  15.834  50.164  1.00  0.00     0.000 A 
HETATM   11  C7  UNL     1     -37.043  15.401  48.934  1.00  0.00     0.000 A 
HETATM   12  C8  UNL     1     -37.735  15.749  50.135  1.00  0.00     0.000 A 
HETATM   13  C9  UNL     1     -36.321  15.489  49.324  1.00  0.00     0.000 A 
HETATM   14  C10 UNL     1     -37.013  15.836  50.525  1.00  0.00     0.000 A 
HETATM   15  C11 UNL     1     -36.306  15.706  50.120  1.00  0.00     0.000 A 
ENDROOT
TORSDOF 15
ENDMDL
