MODEL 1
REMARK VINA RESULT:     178.8      0.000      0.000
REMARK  23 active torsions:
REMARK  status: ('A' for Active; 'I' for Inactive)
REMARK    1  A    between atoms: O1_1  and  C5_7 
REMARK    2  A    between atoms: C2_4  and  C3_5 
REMARK    3  A    between atoms: C2_4  and  C4_6 
REMARK    4  A    between atoms: C2_4  and  C7_9 
REMARK    5  A    between atoms: C2_4  and  C16_18 
REMARK    6  A    between atoms: C3_5  and  C8_10 
REMARK    7  A    between atoms: C3_5  and  C17_19 
REMARK    8  A    between atoms: C4_6  and  C6_8 
REMARK    9  A    between atoms: C4_6  and  C11_13 
REMARK   10  A    between atoms: C6_8  and  C8_10 
REMARK   11  A    between atoms: C6_8  and  C14_16 
REMARK   12  A    between atoms: C7_9  and  C8_10 
REMARK   13  A    between atoms: C7_9  and  C9_11 
REMARK   14  A    between atoms: C7_9  and  C15_17 
REMARK   15  A    between atoms: C8_10  and  C12_14 
REMARK   16  A    between atoms: C8_10  and  C16_18 
REMARK   17  A    between atoms: C9_11  and  C13_15 
REMARK   18  A    between atoms: C9_11  and  C17_19 
REMARK   19  A    between atoms: C10_12  and  C11_13 
REMARK   20  A    between atoms: C12_14  and  C14_16 
REMARK   21  A    between atoms: C13_15  and  C15_17 
REMARK   22  A    between atoms: C14_16  and  C16_18 
REMARK   23  A    between atoms: C15_17  and  C17_19 
ROOT
HETATM    1  O1  UNL     1     -39.271  13.419  49.016  1.00  0.00     0.000 OA
HETATM    2  N1  UNL     1     -40.603  12.104  47.893  1.00  0.00    -0.005 N 
HETATM    3  C1  UNL     1     -39.282  14.165  49.366  1.00  0.00     0.024 A 
HETATM    4  C2  UNL     1     -39.964  14.629  49.330  1.00  0.00     0.022 A 
HETATM    5  C3  UNL     1     -38.611  14.449  49.752  1.00  0.00     0.003 A 
HETATM    6  C4  UNL     1     -39.942  13.134  48.629  1.00  0.00     0.173 A 
HETATM    7  C5  UNL     1     -39.932  12.388  48.279  1.00  0.00     0.244 A 
HETATM    8  C6  UNL     1     -40.635  14.344  48.943  1.00  0.00     0.024 A 
HETATM    9  C7  UNL     1     -38.622  15.197  50.103  1.00  0.00     0.003 A 
HETATM   10  C8  UNL     1     -39.975  15.375  49.679  1.00  0.00     0.005 A 
HETATM   11  C9  UNL     1     -37.929  13.987  49.789  1.00  0.00     0.002 A 
HETATM   12  C10 UNL     1     -40.592  11.356  47.543  1.00  0.00     0.249 A 
HETATM   13  C11 UNL     1     -41.285  12.566  47.856  1.00  0.00     0.244 A 
HETATM   14  C12 UNL     1     -41.317  14.807  48.906  1.00  0.00     0.003 A 
HETATM   15  C13 UNL     1     -37.951  15.481  50.489  1.00  0.00     0.000 A 
HETATM   16  C14 UNL     1     -40.657  15.838  49.643  1.00  0.00     0.003 A 
HETATM   17  C15 UNL     1     -37.258  14.271  50.176  1.00  0.00     0.000 A 
HETATM   18  C16 UNL     1     -41.328  15.554  49.256  1.00  0.00     0.003 A 
HETATM   19  C17 UNL     1     -37.269  15.017  50.526  1.00  0.00     0.000 A 
ENDROOT
TORSDOF 23
ENDMDL
