MODEL 1
REMARK VINA RESULT:     355.4      0.000      0.000
REMARK  21 active torsions:
REMARK  status: ('A' for Active; 'I' for Inactive)
REMARK    1  A    between atoms: N1_2  and  C4_9 
REMARK    2  A    between atoms: N2_3  and  C3_8 
REMARK    3  A    between atoms: N3_4  and  N4_5 
REMARK    4  A    between atoms: N3_4  and  C9_14 
REMARK    5  A    between atoms: N3_4  and  C11_16 
REMARK    6  A    between atoms: N4_5  and  C7_12 
REMARK    7  A    between atoms: C1_6  and  C5_10 
REMARK    8  A    between atoms: C1_6  and  C8_13 
REMARK    9  A    between atoms: C2_7  and  C6_11 
REMARK   10  A    between atoms: C3_8  and  C5_10 
REMARK   11  A    between atoms: C5_10  and  C10_15 
REMARK   12  A    between atoms: C7_12  and  C9_14 
REMARK   13  A    between atoms: C7_12  and  C8_13 
REMARK   14  A    between atoms: C7_12  and  C13_18 
REMARK   15  A    between atoms: C7_12  and  C15_20 
REMARK   16  A    between atoms: C9_14  and  C12_17 
REMARK   17  A    between atoms: C9_14  and  C14_19 
REMARK   18  A    between atoms: C12_17  and  C13_18 
REMARK   19  A    between atoms: C12_17  and  C15_20 
REMARK   20  A    between atoms: C13_18  and  C14_19 
REMARK   21  A    between atoms: C14_19  and  C15_20 
ROOT
HETATM    1  O1  UNL     1     -36.739  12.566  49.055  1.00  0.00     0.000 OA
HETATM    2  N1  UNL     1     -39.662  12.345  47.906  1.00  0.00     0.000 N 
HETATM    3  N2  UNL     1     -40.718  10.830  47.747  1.00  0.00     0.000 N 
HETATM    4  N3  UNL     1     -38.591  13.309  48.169  1.00  0.00     0.000 N 
HETATM    5  N4  UNL     1     -39.709  13.783  47.630  1.00  0.00     0.000 N 
HETATM    6  C1  UNL     1     -39.177  11.750  48.210  1.00  0.00     0.000 A 
HETATM    7  C2  UNL     1     -40.428  12.281  47.606  1.00  0.00     0.000 A 
HETATM    8  C3  UNL     1     -39.339  10.945  48.288  1.00  0.00     0.000 A 
HETATM    9  C4  UNL     1     -40.899  11.606  47.535  1.00  0.00     0.000 A 
HETATM   10  C5  UNL     1     -40.024  10.536  48.082  1.00  0.00     0.000 A 
HETATM   11  C6  UNL     1     -39.339  13.104  47.902  1.00  0.00     0.000 A 
HETATM   12  C7  UNL     1     -38.496  14.117  48.063  1.00  0.00     0.000 A 
HETATM   13  C8  UNL     1     -38.032  12.794  48.489  1.00  0.00     0.000 A 
HETATM   14  C9  UNL     1     -39.190  14.412  47.728  1.00  0.00     0.000 A 
HETATM   15  C10 UNL     1     -41.311  10.273  47.606  1.00  0.00     0.000 A 
HETATM   16  C11 UNL     1     -37.299  13.082  48.735  1.00  0.00     0.004 A 
HETATM   17  C12 UNL     1     -37.869  14.627  48.227  1.00  0.00     0.000 A 
HETATM   18  C13 UNL     1     -39.257  15.216  47.557  1.00  0.00     0.000 A 
HETATM   19  C14 UNL     1     -37.935  15.432  48.056  1.00  0.00     0.000 A 
HETATM   20  C15 UNL     1     -38.629  15.726  47.721  1.00  0.00     0.000 A 
HETATM   21  C16 UNL     1     -36.007  12.854  49.302  1.00  0.00     0.026 A 
HETATM   22  C17 UNL     1     -35.448  12.338  49.621  1.00  0.00    -0.030 A 
ENDROOT
TORSDOF 21
ENDMDL
