MODEL 1
REMARK VINA RESULT:      86.1      0.000      0.000
REMARK  12 active torsions:
REMARK  status: ('A' for Active; 'I' for Inactive)
REMARK    1  A    between atoms: O1_1  and  C2_6 
REMARK    2  A    between atoms: N1_3  and  N2_4 
REMARK    3  A    between atoms: N1_3  and  C9_13 
REMARK    4  A    between atoms: C1_5  and  C6_10 
REMARK    5  A    between atoms: C1_5  and  C7_11 
REMARK    6  A    between atoms: C1_5  and  C11_15 
REMARK    7  A    between atoms: C2_6  and  C4_8 
REMARK    8  A    between atoms: C3_7  and  C4_8 
REMARK    9  A    between atoms: C3_7  and  C9_13 
REMARK   10  A    between atoms: C4_8  and  C11_15 
REMARK   11  A    between atoms: C5_9  and  C6_10 
REMARK   12  A    between atoms: C10_14  and  C11_15 
ROOT
HETATM    1  O1  UNL     1     -38.131  15.790  48.219  1.00  0.00     0.000 OA
HETATM    2  O2  UNL     1     -36.704  15.833  48.571  1.00  0.00    -0.363 OA
HETATM    3  N1  UNL     1     -40.348  15.724  49.174  1.00  0.00     0.000 N 
HETATM    4  N2  UNL     1     -41.321  15.696  50.087  1.00  0.00     0.134 N 
HETATM    5  C1  UNL     1     -38.648  15.775  49.451  1.00  0.00     0.077 A 
HETATM    6  C2  UNL     1     -37.827  15.800  49.519  1.00  0.00     0.084 A 
HETATM    7  C3  UNL     1     -39.187  15.760  50.075  1.00  0.00     0.086 A 
HETATM    8  C4  UNL     1     -38.837  15.769  48.647  1.00  0.00     0.057 A 
HETATM    9  C5  UNL     1     -37.399  15.814  50.225  1.00  0.00     0.068 A 
HETATM   10  C6  UNL     1     -37.507  15.809  48.759  1.00  0.00     0.103 A 
HETATM   11  C7  UNL     1     -39.997  15.735  49.920  1.00  0.00     0.209 A 
HETATM   12  C8  UNL     1     -36.575  15.838  50.208  1.00  0.00    -0.026 A 
HETATM   13  C9  UNL     1     -40.598  15.718  50.485  1.00  0.00     0.251 A 
HETATM   14  C10 UNL     1     -41.166  15.700  49.277  1.00  0.00     0.249 A 
HETATM   15  C11 UNL     1     -39.951  15.735  48.451  1.00  0.00     0.070 A 
ENDROOT
TORSDOF 12
ENDMDL
