MODEL 1
REMARK VINA RESULT:      58.3      0.000      0.000
REMARK  10 active torsions:
REMARK  status: ('A' for Active; 'I' for Inactive)
REMARK    1  A    between atoms: N1_3  and  C6_9 
REMARK    2  A    between atoms: C1_4  and  C4_7 
REMARK    3  A    between atoms: C2_5  and  C4_7 
REMARK    4  A    between atoms: C2_5  and  C6_9 
REMARK    5  A    between atoms: C2_5  and  C7_10 
REMARK    6  A    between atoms: C3_6  and  C4_7 
REMARK    7  A    between atoms: C3_6  and  C5_8 
REMARK    8  A    between atoms: C3_6  and  C7_10 
REMARK    9  A    between atoms: C4_7  and  C6_9 
REMARK   10  A    between atoms: C5_8  and  C6_9 
ROOT
HETATM    1  O1  UNL     1     -41.254  12.494  48.615  1.00  0.00     0.000 OA
HETATM    2  O2  UNL     1     -41.305  13.428  47.534  1.00  0.00    -0.363 OA
HETATM    3  N1  UNL     1     -41.302  15.770  50.501  1.00  0.00    -0.273 NA
HETATM    4  C1  UNL     1     -41.287  13.897  48.883  1.00  0.00     0.101 A 
HETATM    5  C2  UNL     1     -41.264  13.743  49.693  1.00  0.00     0.082 A 
HETATM    6  C3  UNL     1     -41.315  14.676  48.612  1.00  0.00     0.082 A 
HETATM    7  C4  UNL     1     -41.297  15.146  49.962  1.00  0.00     0.080 A 
HETATM    8  C5  UNL     1     -41.269  14.367  50.232  1.00  0.00     0.080 A 
HETATM    9  C6  UNL     1     -41.320  15.301  49.151  1.00  0.00     0.080 A 
HETATM   10  C7  UNL     1     -41.282  13.273  48.344  1.00  0.00     0.107 A 
HETATM   11  C8  UNL     1     -41.249  11.870  48.075  1.00  0.00     0.053 A 
HETATM   12  C9  UNL     1     -41.221  11.091  48.345  1.00  0.00    -0.028 A 
ENDROOT
TORSDOF 10
ENDMDL
