MODEL 1
REMARK VINA RESULT:     320.3      0.000      0.000
REMARK  30 active torsions:
REMARK  status: ('A' for Active; 'I' for Inactive)
REMARK    1  A    between atoms: O1_1  and  C4_10 
REMARK    2  A    between atoms: O4_4  and  C14_20 
REMARK    3  A    between atoms: O5_5  and  C15_21 
REMARK    4  A    between atoms: O6_6  and  C12_18 
REMARK    5  A    between atoms: C1_7  and  C4_10 
REMARK    6  A    between atoms: C1_7  and  C5_11 
REMARK    7  A    between atoms: C2_8  and  C3_9 
REMARK    8  A    between atoms: C2_8  and  C4_10 
REMARK    9  A    between atoms: C2_8  and  C6_12 
REMARK   10  A    between atoms: C2_8  and  C8_14 
REMARK   11  A    between atoms: C3_9  and  C11_17 
REMARK   12  A    between atoms: C3_9  and  C15_21 
REMARK   13  A    between atoms: C4_10  and  C6_12 
REMARK   14  A    between atoms: C4_10  and  C10_16 
REMARK   15  A    between atoms: C4_10  and  C12_18 
REMARK   16  A    between atoms: C5_11  and  C6_12 
REMARK   17  A    between atoms: C5_11  and  C9_15 
REMARK   18  A    between atoms: C6_12  and  C9_15 
REMARK   19  A    between atoms: C6_12  and  C13_19 
REMARK   20  A    between atoms: C7_13  and  C8_14 
REMARK   21  A    between atoms: C7_13  and  C14_20 
REMARK   22  A    between atoms: C7_13  and  C15_21 
REMARK   23  A    between atoms: C8_14  and  C11_17 
REMARK   24  A    between atoms: C8_14  and  C15_21 
REMARK   25  A    between atoms: C9_15  and  C13_19 
REMARK   26  A    between atoms: C10_16  and  C12_18 
REMARK   27  A    between atoms: C11_17  and  C14_20 
REMARK   28  A    between atoms: C12_18  and  C13_19 
REMARK   29  A    between atoms: C14_20  and  C15_21 
REMARK   30  A    between atoms: C14_20  and  C16_22 
ROOT
HETATM    1  O1  UNL     1     -37.848  13.151  49.565  1.00  0.00     0.000 OA
HETATM    2  O2  UNL     1     -38.546  10.980  50.526  1.00  0.00     0.000 OA
HETATM    3  O3  UNL     1     -37.309  10.366  50.110  1.00  0.00     0.000 OA
HETATM    4  O4  UNL     1     -40.583  15.698  50.143  1.00  0.00     0.000 OA
HETATM    5  O5  UNL     1     -39.116  15.837  49.399  1.00  0.00     0.000 OA
HETATM    6  O6  UNL     1     -35.328  11.978  48.695  1.00  0.00     0.000 OA
HETATM    7  C1  UNL     1     -38.581  13.082  49.937  1.00  0.00     0.000 A 
HETATM    8  C2  UNL     1     -38.814  12.358  50.257  1.00  0.00     0.000 A 
HETATM    9  C3  UNL     1     -39.081  13.735  49.989  1.00  0.00     0.000 A 
HETATM   10  C4  UNL     1     -37.580  11.774  49.834  1.00  0.00     0.000 A 
HETATM   11  C5  UNL     1     -38.313  11.704  50.206  1.00  0.00     0.000 A 
HETATM   12  C6  UNL     1     -37.348  12.498  49.514  1.00  0.00     0.000 A 
HETATM   13  C7  UNL     1     -38.849  14.459  49.668  1.00  0.00     0.000 A 
HETATM   14  C8  UNL     1     -39.815  13.666  50.360  1.00  0.00     0.000 A 
HETATM   15  C9  UNL     1     -37.068  11.085  49.787  1.00  0.00     0.000 A 
HETATM   16  C10 UNL     1     -36.586  12.583  49.124  1.00  0.00     0.000 A 
HETATM   17  C11 UNL     1     -39.349  15.113  49.720  1.00  0.00     0.000 A 
HETATM   18  C12 UNL     1     -36.303  11.151  49.401  1.00  0.00     0.000 A 
HETATM   19  C13 UNL     1     -36.061  11.906  49.067  1.00  0.00     0.000 A 
HETATM   20  C14 UNL     1     -40.315  14.319  50.412  1.00  0.00     0.000 A 
HETATM   21  C15 UNL     1     -40.082  15.043  50.092  1.00  0.00     0.000 A 
HETATM   22  C16 UNL     1     -41.316  15.627  50.515  1.00  0.00     0.000 A 
ENDROOT
TORSDOF 30
ENDMDL
