MODEL 1
REMARK VINA RESULT:     304.7      0.000      0.000
REMARK  22 active torsions:
REMARK  status: ('A' for Active; 'I' for Inactive)
REMARK    1  A    between atoms: O3_3  and  C14_20 
REMARK    2  A    between atoms: N1_4  and  C4_10 
REMARK    3  A    between atoms: N1_4  and  C5_11 
REMARK    4  A    between atoms: N3_6  and  C9_15 
REMARK    5  A    between atoms: N3_6  and  C10_16 
REMARK    6  A    between atoms: C2_8  and  C4_10 
REMARK    7  A    between atoms: C3_9  and  C6_12 
REMARK    8  A    between atoms: C4_10  and  C13_19 
REMARK    9  A    between atoms: C5_11  and  C6_12 
REMARK   10  A    between atoms: C5_11  and  C9_15 
REMARK   11  A    between atoms: C5_11  and  C11_17 
REMARK   12  A    between atoms: C6_12  and  C7_13 
REMARK   13  A    between atoms: C6_12  and  C10_16 
REMARK   14  A    between atoms: C6_12  and  C11_17 
REMARK   15  A    between atoms: C7_13  and  C9_15 
REMARK   16  A    between atoms: C7_13  and  C11_17 
REMARK   17  A    between atoms: C7_13  and  C14_20 
REMARK   18  A    between atoms: C9_15  and  C11_17 
REMARK   19  A    between atoms: C9_15  and  C10_16 
REMARK   20  A    between atoms: C10_16  and  C11_17 
REMARK   21  A    between atoms: C11_17  and  C14_20 
REMARK   22  A    between atoms: C12_18  and  C13_19 
ROOT
HETATM    1  O1  UNL     1     -35.340  12.590  50.522  1.00  0.00    -0.361 OA
HETATM    2  N1  UNL     1     -38.637  13.753  48.993  1.00  0.00     0.000 N 
HETATM    3  N2  UNL     1     -40.191  15.042  49.909  1.00  0.00     0.000 N 
HETATM    4  C1  UNL     1     -39.057  14.246  49.558  1.00  0.00     0.005 A 
HETATM    5  C2  UNL     1     -38.708  14.398  50.329  1.00  0.00     0.005 A 
HETATM    6  C3  UNL     1     -37.943  14.056  50.524  1.00  0.00     0.015 A 
HETATM    7  C4  UNL     1     -39.790  14.570  49.363  1.00  0.00     0.000 A 
HETATM    8  C5  UNL     1     -37.539  13.567  49.944  1.00  0.00     0.048 A 
HETATM    9  C6  UNL     1     -37.875  13.420  49.205  1.00  0.00     0.048 A 
HETATM   10  C7  UNL     1     -36.806  13.241  50.137  1.00  0.00     0.067 A 
HETATM   11  C8  UNL     1     -40.924  15.366  49.713  1.00  0.00     0.000 A 
HETATM   12  C9  UNL     1     -37.476  12.948  48.658  1.00  0.00     0.056 A 
HETATM   13  C10 UNL     1     -36.408  12.769  49.589  1.00  0.00     0.092 A 
HETATM   14  C12 UNL     1     -41.325  15.838  50.258  1.00  0.00     0.000 A 
HETATM   15  C13 UNL     1     -41.257  15.218  48.973  1.00  0.00     0.000 A 
HETATM   16  C14 UNL     1     -35.675  12.444  49.782  1.00  0.00     0.137 A 
ENDROOT
BRANCH  16  17
HETATM   17  O3  UNL     1     -35.612  11.826  48.495  1.00  0.00     0.000 OA
HETATM   18  N3  UNL     1     -35.551  11.085  48.854  1.00  0.00     0.000 N 
HETATM   19  O2  UNL     1     -35.489  10.406  48.391  1.00  0.00    -0.228 OA
HETATM   20  C11 UNL     1     -35.552  11.024  49.676  1.00  0.00     0.116 A 
ENDBRANCH  16  17
TORSDOF 22
ENDMDL
