MODEL 1
REMARK VINA RESULT:      17.5      0.000      0.000
REMARK  8 active torsions:
REMARK  status: ('A' for Active; 'I' for Inactive)
REMARK    1  A    between atoms: F1_1  and  C4_9 
REMARK    2  A    between atoms: N1_3  and  N3_5 
REMARK    3  A    between atoms: N1_3  and  C2_7 
REMARK    4  A    between atoms: N2_4  and  C2_7 
REMARK    5  A    between atoms: N3_5  and  C2_7 
REMARK    6  A    between atoms: C1_6  and  C4_9 
REMARK    7  A    between atoms: C2_7  and  C4_9 
REMARK    8  A    between atoms: C2_7  and  C3_8 
ROOT
HETATM    1  F1  UNL     1     -41.018  15.470  48.746  1.00  0.00    -0.450 F 
HETATM    2  O1  UNL     1     -38.263  15.836  50.525  1.00  0.00     0.000 OA
HETATM    3  N1  UNL     1     -39.679  15.655  50.460  1.00  0.00     0.000 N 
HETATM    4  N2  UNL     1     -41.095  15.474  50.394  1.00  0.00    -0.167 NA
HETATM    5  N3  UNL     1     -38.912  15.742  49.257  1.00  0.00     0.000 N 
HETATM    6  C1  UNL     1     -40.367  15.563  50.015  1.00  0.00     0.171 A 
HETATM    7  C2  UNL     1     -40.328  15.561  49.191  1.00  0.00     0.171 A 
HETATM    8  C3  UNL     1     -38.951  15.744  50.081  1.00  0.00     0.118 A 
HETATM    9  C4  UNL     1     -39.602  15.651  48.811  1.00  0.00     0.157 A 
ENDROOT
TORSDOF 8
ENDMDL
MODEL 2
REMARK VINA RESULT:      20.2      1.466      1.868
REMARK  8 active torsions:
REMARK  status: ('A' for Active; 'I' for Inactive)
REMARK    1  A    between atoms: F1_1  and  C4_9 
REMARK    2  A    between atoms: N1_3  and  N3_5 
REMARK    3  A    between atoms: N1_3  and  C2_7 
REMARK    4  A    between atoms: N2_4  and  C2_7 
REMARK    5  A    between atoms: N3_5  and  C2_7 
REMARK    6  A    between atoms: C1_6  and  C4_9 
REMARK    7  A    between atoms: C2_7  and  C4_9 
REMARK    8  A    between atoms: C2_7  and  C3_8 
ROOT
HETATM    1  F1  UNL     1     -38.507  15.524  48.705  1.00  0.00    -0.450 F 
HETATM    2  O1  UNL     1     -41.315  15.836  50.411  1.00  0.00     0.000 OA
HETATM    3  N1  UNL     1     -39.887  15.837  50.368  1.00  0.00     0.000 N 
HETATM    4  N2  UNL     1     -38.458  15.837  50.325  1.00  0.00    -0.167 NA
HETATM    5  N3  UNL     1     -40.638  15.602  49.175  1.00  0.00     0.000 N 
HETATM    6  C1  UNL     1     -39.185  15.759  49.942  1.00  0.00     0.171 A 
HETATM    7  C2  UNL     1     -39.210  15.602  49.132  1.00  0.00     0.171 A 
HETATM    8  C3  UNL     1     -40.613  15.758  49.985  1.00  0.00     0.118 A 
HETATM    9  C4  UNL     1     -39.935  15.524  48.748  1.00  0.00     0.157 A 
ENDROOT
TORSDOF 8
ENDMDL
