MODEL 1
REMARK VINA RESULT:     296.8      0.000      0.000
REMARK WARNING: 32 MAX_TORS EXCEEDED!!!
REMARK  44 active torsions:
REMARK  status: ('A' for Active; 'I' for Inactive)
REMARK    1  A    between atoms: O2_2  and  C16_20 
REMARK    2  A    between atoms: O2_2  and  C18_22 
REMARK    3  A    between atoms: O3_3  and  C19_23 
REMARK    4  A    between atoms: C1_5  and  C8_12 
REMARK    5  A    between atoms: C1_5  and  C9_13 
REMARK    6  A    between atoms: C1_5  and  C17_21 
REMARK    7  A    between atoms: C2_6  and  C4_8 
REMARK    8  A    between atoms: C2_6  and  C9_13 
REMARK    9  A    between atoms: C2_6  and  C17_21 
REMARK   10  A    between atoms: C2_6  and  C19_23 
REMARK   11  A    between atoms: C3_7  and  C6_10 
REMARK   12  A    between atoms: C3_7  and  C8_12 
REMARK   13  A    between atoms: C3_7  and  C11_15 
REMARK   14  A    between atoms: C3_7  and  C12_16 
REMARK   15  A    between atoms: C3_7  and  C15_19 
REMARK   16  A    between atoms: C4_8  and  C8_12 
REMARK   17  A    between atoms: C4_8  and  C10_14 
REMARK   18  A    between atoms: C4_8  and  C11_15 
REMARK   19  A    between atoms: C4_8  and  C15_19 
REMARK   20  A    between atoms: C5_9  and  C9_13 
REMARK   21  A    between atoms: C5_9  and  C10_14 
REMARK   22  A    between atoms: C5_9  and  C14_18 
REMARK   23  A    between atoms: C6_10  and  C10_14 
REMARK   24  A    between atoms: C6_10  and  C13_17 
REMARK   25  A    between atoms: C6_10  and  C16_20 
REMARK   26  A    between atoms: C7_11  and  C8_12 
REMARK   27  A    between atoms: C7_11  and  C12_16 
REMARK   28  A    between atoms: C7_11  and  C19_23 
REMARK   29  A    between atoms: C8_12  and  C9_13 
REMARK   30  A    between atoms: C10_14  and  C11_15 
REMARK   31  A    between atoms: C10_14  and  C12_16 
REMARK   32  A    between atoms: C10_14  and  C15_19 
REMARK   33  A    between atoms: C10_14  and  C18_22 
REMARK   34  A    between atoms: C11_15  and  C14_18 
REMARK   35  A    between atoms: C11_15  and  C15_19 
REMARK   36  A    between atoms: C11_15  and  C18_22 
REMARK   37  A    between atoms: C12_16  and  C15_19 
REMARK   38  A    between atoms: C12_16  and  C17_21 
REMARK   39  A    between atoms: C13_17  and  C14_18 
REMARK   40  A    between atoms: C14_18  and  C16_20 
REMARK   41  A    between atoms: C14_18  and  C18_22 
REMARK   42  A    between atoms: C15_19  and  C19_23 
REMARK   43  A    between atoms: C17_21  and  C19_23 
REMARK   44  A    between atoms: C17_21  and  C20_24 
ROOT
HETATM    1  O1  UNL     1     -36.411  13.904  50.448  1.00  0.00     0.000 OA
HETATM    2  O2  UNL     1     -41.268  14.969  50.226  1.00  0.00     0.000 OA
HETATM    3  O3  UNL     1     -35.813  11.815  50.345  1.00  0.00     0.000 OA
HETATM    4  N1  UNL     1     -37.310  10.289  50.154  1.00  0.00    -0.183 N 
HETATM    5  C1  UNL     1     -37.853  13.162  50.312  1.00  0.00     0.004 A 
HETATM    6  C2  UNL     1     -37.144  13.520  50.378  1.00  0.00     0.004 A 
HETATM    7  C3  UNL     1     -38.520  13.599  50.301  1.00  0.00     0.002 A 
HETATM    8  C4  UNL     1     -38.478  14.393  50.356  1.00  0.00     0.001 A 
HETATM    9  C5  UNL     1     -39.164  14.858  50.345  1.00  0.00     0.000 A 
HETATM   10  C6  UNL     1     -39.906  14.491  50.276  1.00  0.00     0.000 A 
HETATM   11  C7  UNL     1     -36.443  13.076  50.391  1.00  0.00     0.005 A 
HETATM   12  C8  UNL     1     -37.102  14.314  50.433  1.00  0.00     0.001 A 
HETATM   13  C9  UNL     1     -37.768  14.750  50.422  1.00  0.00     0.000 A 
HETATM   14  C10 UNL     1     -39.252  13.215  50.231  1.00  0.00     0.002 A 
HETATM   15  C11 UNL     1     -39.951  13.664  50.219  1.00  0.00     0.000 A 
HETATM   16  C12 UNL     1     -37.910  12.337  50.254  1.00  0.00     0.017 A 
HETATM   17  C13 UNL     1     -39.289  15.671  50.392  1.00  0.00     0.000 A 
HETATM   18  C14 UNL     1     -40.482  15.082  50.281  1.00  0.00     0.000 A 
HETATM   19  C15 UNL     1     -38.562  12.805  50.245  1.00  0.00     0.003 A 
HETATM   20  C16 UNL     1     -40.101  15.810  50.352  1.00  0.00     0.000 A 
HETATM   21  C17 UNL     1     -36.481  12.249  50.334  1.00  0.00     0.021 A 
HETATM   22  C18 UNL     1     -40.618  14.138  50.210  1.00  0.00     0.000 A 
HETATM   23  C19 UNL     1     -37.220  11.877  50.265  1.00  0.00     0.019 A 
HETATM   24  C20 UNL     1     -37.265  11.083  50.209  1.00  0.00     0.104 A 
ENDROOT
TORSDOF 44
ENDMDL
