MODEL 1
REMARK VINA RESULT:     348.3      0.000      0.000
REMARK WARNING: 32 MAX_TORS EXCEEDED!!!
REMARK  36 active torsions:
REMARK  status: ('A' for Active; 'I' for Inactive)
REMARK    1  A    between atoms: CL1_1  and  O1_5 
REMARK    2  A    between atoms: CL2_2  and  C11_18 
REMARK    3  A    between atoms: CL3_3  and  C8_15 
REMARK    4  A    between atoms: CL3_3  and  C13_20 
REMARK    5  A    between atoms: CL4_4  and  C17_24 
REMARK    6  A    between atoms: O1_5  and  C8_15 
REMARK    7  A    between atoms: N1_6  and  C4_11 
REMARK    8  A    between atoms: N1_6  and  C13_20 
REMARK    9  A    between atoms: N2_7  and  C8_15 
REMARK   10  A    between atoms: C2_9  and  C3_10 
REMARK   11  A    between atoms: C2_9  and  C4_11 
REMARK   12  A    between atoms: C2_9  and  C6_13 
REMARK   13  A    between atoms: C3_10  and  C10_17 
REMARK   14  A    between atoms: C3_10  and  C12_19 
REMARK   15  A    between atoms: C4_11  and  C8_15 
REMARK   16  A    between atoms: C4_11  and  C13_20 
REMARK   17  A    between atoms: C5_12  and  C6_13 
REMARK   18  A    between atoms: C5_12  and  C11_18 
REMARK   19  A    between atoms: C5_12  and  C12_19 
REMARK   20  A    between atoms: C6_13  and  C10_17 
REMARK   21  A    between atoms: C6_13  and  C12_19 
REMARK   22  A    between atoms: C7_14  and  C8_15 
REMARK   23  A    between atoms: C7_14  and  C16_23 
REMARK   24  A    between atoms: C7_14  and  C18_25 
REMARK   25  A    between atoms: C8_15  and  C13_20 
REMARK   26  A    between atoms: C8_15  and  C9_16 
REMARK   27  A    between atoms: C8_15  and  C14_21 
REMARK   28  A    between atoms: C10_17  and  C11_18 
REMARK   29  A    between atoms: C11_18  and  C12_19 
REMARK   30  A    between atoms: C14_21  and  C15_22 
REMARK   31  A    between atoms: C14_21  and  C17_24 
REMARK   32  A    between atoms: C14_21  and  C18_25 
REMARK   33  A    between atoms: C15_22  and  C16_23 
REMARK   34  A    between atoms: C15_22  and  C18_25 
REMARK   35  A    between atoms: C16_23  and  C17_24 
REMARK   36  A    between atoms: C17_24  and  C18_25 
ROOT
HETATM    1 CL1  UNL     1     -38.175  12.753  50.433  1.00  0.00    -0.272 Cl
HETATM    2 CL2  UNL     1     -36.192  10.696  50.505  1.00  0.00    -0.236 Cl
HETATM    3 CL3  UNL     1     -41.327  13.618  48.533  1.00  0.00    -0.255 Cl
HETATM    4 CL4  UNL     1     -41.149  15.838  50.324  1.00  0.00    -0.237 Cl
HETATM    5  O1  UNL     1     -39.255  12.671  49.501  1.00  0.00     0.000 OA
HETATM    6  N1  UNL     1     -40.035  11.877  48.283  1.00  0.00     0.000 N 
HETATM    7  N2  UNL     1     -41.123  12.043  47.528  1.00  0.00     0.150 N 
HETATM    8  C1  UNL     1     -38.954  11.959  49.215  1.00  0.00     0.061 A 
HETATM    9  C2  UNL     1     -39.344  11.561  48.605  1.00  0.00     0.096 A 
HETATM   10  C3  UNL     1     -38.264  11.643  49.537  1.00  0.00     0.067 A 
HETATM   11  C4  UNL     1     -39.946  12.987  49.178  1.00  0.00     0.093 A 
HETATM   12  C5  UNL     1     -37.874  12.040  50.146  1.00  0.00     0.069 A 
HETATM   13  C6  UNL     1     -37.963  10.930  49.250  1.00  0.00     0.070 A 
HETATM   14  C7  UNL     1     -40.246  13.700  49.465  1.00  0.00     0.080 A 
HETATM   15  C8  UNL     1     -40.399  12.581  48.512  1.00  0.00     0.196 A 
HETATM   16  C9  UNL     1     -40.482  11.544  47.675  1.00  0.00     0.268 A 
HETATM   17  C10 UNL     1     -37.184  11.725  50.469  1.00  0.00     0.073 A 
HETATM   18  C11 UNL     1     -37.273  10.615  49.573  1.00  0.00     0.077 A 
HETATM   19  C12 UNL     1     -36.882  11.012  50.183  1.00  0.00     0.077 A 
HETATM   20  C13 UNL     1     -41.072  12.683  48.045  1.00  0.00     0.252 A 
HETATM   21  C14 UNL     1     -40.937  14.016  49.143  1.00  0.00     0.080 A 
HETATM   22  C15 UNL     1     -39.857  14.097  50.074  1.00  0.00     0.071 A 
HETATM   23  C16 UNL     1     -41.238  14.728  49.428  1.00  0.00     0.067 A 
HETATM   24  C17 UNL     1     -40.157  14.810  50.361  1.00  0.00     0.077 A 
HETATM   25  C18 UNL     1     -40.848  15.126  50.038  1.00  0.00     0.077 A 
ENDROOT
TORSDOF 36
ENDMDL
