MODEL 1
REMARK VINA RESULT:     210.8      0.000      0.000
REMARK  25 active torsions:
REMARK  status: ('A' for Active; 'I' for Inactive)
REMARK    1  A    between atoms: CL1_1  and  C12_15 
REMARK    2  A    between atoms: N2_3  and  C3_6 
REMARK    3  A    between atoms: N2_3  and  C16_19 
REMARK    4  A    between atoms: C1_4  and  C8_11 
REMARK    5  A    between atoms: C2_5  and  C5_8 
REMARK    6  A    between atoms: C2_5  and  C7_10 
REMARK    7  A    between atoms: C2_5  and  C9_12 
REMARK    8  A    between atoms: C3_6  and  C5_8 
REMARK    9  A    between atoms: C4_7  and  C5_8 
REMARK   10  A    between atoms: C4_7  and  C8_11 
REMARK   11  A    between atoms: C4_7  and  C14_17 
REMARK   12  A    between atoms: C5_8  and  C6_9 
REMARK   13  A    between atoms: C5_8  and  C16_19 
REMARK   14  A    between atoms: C6_9  and  C7_10 
REMARK   15  A    between atoms: C6_9  and  C8_11 
REMARK   16  A    between atoms: C6_9  and  C12_15 
REMARK   17  A    between atoms: C6_9  and  C14_17 
REMARK   18  A    between atoms: C7_10  and  C11_14 
REMARK   19  A    between atoms: C7_10  and  C14_17 
REMARK   20  A    between atoms: C8_11  and  C15_18 
REMARK   21  A    between atoms: C9_12  and  C10_13 
REMARK   22  A    between atoms: C11_14  and  C12_15 
REMARK   23  A    between atoms: C12_15  and  C14_17 
REMARK   24  A    between atoms: C13_16  and  C15_18 
REMARK   25  A    between atoms: C15_18  and  C16_19 
ROOT
HETATM    1 CL1  UNL     1     -37.149  10.838  50.438  1.00  0.00    -0.250 Cl
HETATM    2  N1  UNL     1     -40.901  14.367  50.508  1.00  0.00    -0.010 N 
HETATM    3  N2  UNL     1     -38.847  15.106  50.514  1.00  0.00     0.000 N 
HETATM    4  C1  UNL     1     -38.831  13.676  50.490  1.00  0.00     0.057 A 
HETATM    5  C2  UNL     1     -39.656  13.667  50.493  1.00  0.00     0.159 A 
HETATM    6  C3  UNL     1     -40.077  14.377  50.506  1.00  0.00     0.196 A 
HETATM    7  C4  UNL     1     -38.411  12.967  50.477  1.00  0.00     0.050 A 
HETATM    8  C5  UNL     1     -38.427  14.396  50.501  1.00  0.00     0.047 A 
HETATM    9  C6  UNL     1     -37.586  12.977  50.475  1.00  0.00     0.036 A 
HETATM   10  C7  UNL     1     -38.815  12.248  50.466  1.00  0.00     0.054 A 
HETATM   11  C8  UNL     1     -37.602  14.405  50.499  1.00  0.00     0.013 A 
HETATM   12  C9  UNL     1     -41.306  13.648  50.497  1.00  0.00     0.239 A 
HETATM   13  C10 UNL     1     -41.322  15.078  50.521  1.00  0.00     0.245 A 
HETATM   14  C11 UNL     1     -37.165  12.267  50.462  1.00  0.00     0.051 A 
HETATM   15  C12 UNL     1     -38.394  11.539  50.453  1.00  0.00     0.051 A 
HETATM   16  C13 UNL     1     -37.198  15.124  50.509  1.00  0.00     0.004 A 
HETATM   17  C14 UNL     1     -37.570  11.548  50.451  1.00  0.00     0.051 A 
HETATM   18  C15 UNL     1     -38.443  15.824  50.525  1.00  0.00     0.004 A 
HETATM   19  C16 UNL     1     -37.618  15.834  50.522  1.00  0.00     0.004 A 
ENDROOT
TORSDOF 25
ENDMDL
MODEL 2
REMARK VINA RESULT:     212.1      2.069      3.168
REMARK  25 active torsions:
REMARK  status: ('A' for Active; 'I' for Inactive)
REMARK    1  A    between atoms: CL1_1  and  C12_15 
REMARK    2  A    between atoms: N2_3  and  C3_6 
REMARK    3  A    between atoms: N2_3  and  C16_19 
REMARK    4  A    between atoms: C1_4  and  C8_11 
REMARK    5  A    between atoms: C2_5  and  C5_8 
REMARK    6  A    between atoms: C2_5  and  C7_10 
REMARK    7  A    between atoms: C2_5  and  C9_12 
REMARK    8  A    between atoms: C3_6  and  C5_8 
REMARK    9  A    between atoms: C4_7  and  C5_8 
REMARK   10  A    between atoms: C4_7  and  C8_11 
REMARK   11  A    between atoms: C4_7  and  C14_17 
REMARK   12  A    between atoms: C5_8  and  C6_9 
REMARK   13  A    between atoms: C5_8  and  C16_19 
REMARK   14  A    between atoms: C6_9  and  C7_10 
REMARK   15  A    between atoms: C6_9  and  C8_11 
REMARK   16  A    between atoms: C6_9  and  C12_15 
REMARK   17  A    between atoms: C6_9  and  C14_17 
REMARK   18  A    between atoms: C7_10  and  C11_14 
REMARK   19  A    between atoms: C7_10  and  C14_17 
REMARK   20  A    between atoms: C8_11  and  C15_18 
REMARK   21  A    between atoms: C9_12  and  C10_13 
REMARK   22  A    between atoms: C11_14  and  C12_15 
REMARK   23  A    between atoms: C12_15  and  C14_17 
REMARK   24  A    between atoms: C13_16  and  C15_18 
REMARK   25  A    between atoms: C15_18  and  C16_19 
ROOT
HETATM    1 CL1  UNL     1     -40.886  10.889  47.847  1.00  0.00    -0.250 Cl
HETATM    2  N1  UNL     1     -38.033  14.478  50.196  1.00  0.00    -0.010 N 
HETATM    3  N2  UNL     1     -39.894  15.143  49.269  1.00  0.00     0.000 N 
HETATM    4  C1  UNL     1     -39.747  13.735  49.069  1.00  0.00     0.057 A 
HETATM    5  C2  UNL     1     -39.032  13.751  49.480  1.00  0.00     0.159 A 
HETATM    6  C3  UNL     1     -38.748  14.463  49.785  1.00  0.00     0.196 A 
HETATM    7  C4  UNL     1     -40.032  13.024  48.764  1.00  0.00     0.050 A 
HETATM    8  C5  UNL     1     -40.178  14.431  48.964  1.00  0.00     0.047 A 
HETATM    9  C6  UNL     1     -40.748  13.008  48.353  1.00  0.00     0.036 A 
HETATM   10  C7  UNL     1     -39.602  12.328  48.869  1.00  0.00     0.054 A 
HETATM   11  C8  UNL     1     -40.893  14.415  48.553  1.00  0.00     0.013 A 
HETATM   12  C9  UNL     1     -37.602  13.783  50.302  1.00  0.00     0.239 A 
HETATM   13  C10 UNL     1     -37.748  15.191  50.502  1.00  0.00     0.245 A 
HETATM   14  C11 UNL     1     -41.032  12.297  48.047  1.00  0.00     0.051 A 
HETATM   15  C12 UNL     1     -39.886  11.617  48.564  1.00  0.00     0.051 A 
HETATM   16  C13 UNL     1     -41.324  15.111  48.448  1.00  0.00     0.004 A 
HETATM   17  C14 UNL     1     -40.601  11.601  48.153  1.00  0.00     0.051 A 
HETATM   18  C15 UNL     1     -40.324  15.838  49.164  1.00  0.00     0.004 A 
HETATM   19  C16 UNL     1     -41.040  15.823  48.753  1.00  0.00     0.004 A 
ENDROOT
TORSDOF 25
ENDMDL
