MODEL 1
REMARK VINA RESULT:     257.0      0.000      0.000
REMARK WARNING: 32 MAX_TORS EXCEEDED!!!
REMARK  44 active torsions:
REMARK  status: ('A' for Active; 'I' for Inactive)
REMARK    1  A    between atoms: O1_1  and  C11_19 
REMARK    2  A    between atoms: O2_2  and  C12_20 
REMARK    3  A    between atoms: O3_3  and  O6_6 
REMARK    4  A    between atoms: O3_3  and  N2_8 
REMARK    5  A    between atoms: O3_3  and  C4_12 
REMARK    6  A    between atoms: O3_3  and  C7_15 
REMARK    7  A    between atoms: O3_3  and  C13_21 
REMARK    8  A    between atoms: O4_4  and  C4_12 
REMARK    9  A    between atoms: O4_4  and  C8_16 
REMARK   10  A    between atoms: O4_4  and  C14_22 
REMARK   11  A    between atoms: O5_5  and  C13_21 
REMARK   12  A    between atoms: O5_5  and  C15_23 
REMARK   13  A    between atoms: O6_6  and  C9_17 
REMARK   14  A    between atoms: O6_6  and  C16_24 
REMARK   15  A    between atoms: N1_7  and  C3_11 
REMARK   16  A    between atoms: C1_9  and  C6_14 
REMARK   17  A    between atoms: C1_9  and  C7_15 
REMARK   18  A    between atoms: C1_9  and  C9_17 
REMARK   19  A    between atoms: C1_9  and  C10_18 
REMARK   20  A    between atoms: C2_10  and  C6_14 
REMARK   21  A    between atoms: C2_10  and  C7_15 
REMARK   22  A    between atoms: C2_10  and  C11_19 
REMARK   23  A    between atoms: C3_11  and  C6_14 
REMARK   24  A    between atoms: C3_11  and  C4_12 
REMARK   25  A    between atoms: C3_11  and  C5_13 
REMARK   26  A    between atoms: C3_11  and  C8_16 
REMARK   27  A    between atoms: C3_11  and  C12_20 
REMARK   28  A    between atoms: C4_12  and  C7_15 
REMARK   29  A    between atoms: C4_12  and  C9_17 
REMARK   30  A    between atoms: C4_12  and  C10_18 
REMARK   31  A    between atoms: C4_12  and  C13_21 
REMARK   32  A    between atoms: C4_12  and  C15_23 
REMARK   33  A    between atoms: C5_13  and  C9_17 
REMARK   34  A    between atoms: C6_14  and  C10_18 
REMARK   35  A    between atoms: C7_15  and  C8_16 
REMARK   36  A    between atoms: C7_15  and  C9_17 
REMARK   37  A    between atoms: C7_15  and  C14_22 
REMARK   38  A    between atoms: C8_16  and  C10_18 
REMARK   39  A    between atoms: C8_16  and  C13_21 
REMARK   40  A    between atoms: C8_16  and  C15_23 
REMARK   41  A    between atoms: C9_17  and  C11_19 
REMARK   42  A    between atoms: C10_18  and  C12_20 
REMARK   43  A    between atoms: C13_21  and  C14_22 
REMARK   44  A    between atoms: C14_22  and  C15_23 
ROOT
HETATM    1  O1  UNL     1     -40.641  13.597  50.526  1.00  0.00     0.000 OA
HETATM    2  O2  UNL     1     -36.369  13.231  50.523  1.00  0.00     0.000 OA
HETATM    3  O3  UNL     1     -39.823  14.768  50.527  1.00  0.00     0.000 OA
HETATM    4  O4  UNL     1     -36.975  14.524  50.525  1.00  0.00     0.000 OA
HETATM    5  N1  UNL     1     -38.610  12.180  50.524  1.00  0.00     0.000 N 
HETATM    6  C1  UNL     1     -38.469  13.824  50.525  1.00  0.00     0.000 A 
HETATM    7  C2  UNL     1     -39.216  13.475  50.525  1.00  0.00     0.000 A 
HETATM    8  C3  UNL     1     -37.792  13.353  50.524  1.00  0.00     0.000 A 
HETATM    9  C4  UNL     1     -38.399  14.646  50.526  1.00  0.00     0.000 A 
HETATM   10  C5  UNL     1     -39.286  12.653  50.524  1.00  0.00     0.000 A 
HETATM   11  C6  UNL     1     -37.862  12.531  50.523  1.00  0.00     0.000 A 
HETATM   12  C8  UNL     1     -37.651  14.997  50.526  1.00  0.00     0.000 A 
HETATM   13  C9  UNL     1     -39.893  13.946  50.526  1.00  0.00     0.000 A 
HETATM   14  C10 UNL     1     -37.045  13.702  50.524  1.00  0.00     0.000 A 
HETATM   15  C11 UNL     1     -40.034  12.302  50.524  1.00  0.00     0.000 A 
HETATM   16  C12 UNL     1     -37.186  12.058  50.523  1.00  0.00     0.000 A 
HETATM   17  C14 UNL     1     -37.581  15.819  50.526  1.00  0.00     0.000 A 
HETATM   18  C16 UNL     1     -41.317  14.068  50.527  1.00  0.00     0.000 A 
HETATM   19  C17 UNL     1     -35.622  13.580  50.523  1.00  0.00     0.000 A 
ENDROOT
BRANCH  13  20
HETATM   20  O6  UNL     1     -40.500  15.241  50.528  1.00  0.00     0.000 OA
HETATM   21  N2  UNL     1     -40.722  15.136  49.740  1.00  0.00     0.000 N 
HETATM   22  O5  UNL     1     -41.137  15.731  49.347  1.00  0.00     0.000 OA
HETATM   23  C7  UNL     1     -40.531  14.438  49.345  1.00  0.00     0.000 A 
HETATM   24  C13 UNL     1     -40.946  15.033  48.952  1.00  0.00     0.000 A 
HETATM   25  C15 UNL     1     -41.168  14.929  48.165  1.00  0.00     0.000 A 
ENDBRANCH  13  20
TORSDOF 44
ENDMDL
