MODEL 1
REMARK VINA RESULT:     360.9      0.000      0.000
REMARK  30 active torsions:
REMARK  status: ('A' for Active; 'I' for Inactive)
REMARK    1  A    between atoms: S1_1  and  C3_7 
REMARK    2  A    between atoms: S1_1  and  C7_11 
REMARK    3  A    between atoms: N1_3  and  N2_4 
REMARK    4  A    between atoms: N1_3  and  C3_7 
REMARK    5  A    between atoms: N2_4  and  C4_8 
REMARK    6  A    between atoms: C1_5  and  C4_8 
REMARK    7  A    between atoms: C1_5  and  C5_9 
REMARK    8  A    between atoms: C2_6  and  C3_7 
REMARK    9  A    between atoms: C3_7  and  C4_8 
REMARK   10  A    between atoms: C3_7  and  C15_19 
REMARK   11  A    between atoms: C4_8  and  C6_10 
REMARK   12  A    between atoms: C4_8  and  C15_19 
REMARK   13  A    between atoms: C5_9  and  C6_10 
REMARK   14  A    between atoms: C6_10  and  C7_11 
REMARK   15  A    between atoms: C8_12  and  C9_13 
REMARK   16  A    between atoms: C8_12  and  C10_14 
REMARK   17  A    between atoms: C11_15  and  C21_25 
REMARK   18  A    between atoms: C12_16  and  C22_26 
REMARK   19  A    between atoms: C13_17  and  C14_18 
REMARK   20  A    between atoms: C13_17  and  C18_22 
REMARK   21  A    between atoms: C14_18  and  C17_21 
REMARK   22  A    between atoms: C14_18  and  C21_25 
REMARK   23  A    between atoms: C15_19  and  C16_20 
REMARK   24  A    between atoms: C15_19  and  C20_24 
REMARK   25  A    between atoms: C16_20  and  C19_23 
REMARK   26  A    between atoms: C16_20  and  C22_26 
REMARK   27  A    between atoms: C17_21  and  C18_22 
REMARK   28  A    between atoms: C18_22  and  C21_25 
REMARK   29  A    between atoms: C19_23  and  C20_24 
REMARK   30  A    between atoms: C20_24  and  C22_26 
ROOT
HETATM    1  S1  UNL     1     -40.662  14.535  50.026  1.00  0.00    -0.226 SA
HETATM    2  O1  UNL     1     -37.472  13.521  50.281  1.00  0.00    -0.370 OA
HETATM    3  N1  UNL     1     -38.515  14.549  50.204  1.00  0.00     0.000 N 
HETATM    4  N2  UNL     1     -38.913  13.284  50.160  1.00  0.00     0.000 N 
HETATM    5  C1  UNL     1     -39.332  14.546  50.137  1.00  0.00     0.041 A 
HETATM    6  C2  UNL     1     -40.001  15.025  50.086  1.00  0.00     0.033 A 
HETATM    7  C3  UNL     1     -39.580  13.759  50.109  1.00  0.00     0.035 A 
HETATM    8  C4  UNL     1     -40.402  13.753  50.040  1.00  0.00     0.028 A 
HETATM    9  C5  UNL     1     -40.261  15.803  50.071  1.00  0.00     0.033 A 
HETATM   10  C6  UNL     1     -41.326  15.015  49.975  1.00  0.00     0.032 A 
HETATM   11  C7  UNL     1     -41.079  15.796  50.003  1.00  0.00     0.032 A 
HETATM   12  C8  UNL     1     -38.256  13.771  50.219  1.00  0.00     0.083 A 
HETATM   13  C9  UNL     1     -38.036  15.219  50.250  1.00  0.00     0.047 A 
HETATM   14  C10 UNL     1     -38.906  12.459  50.152  1.00  0.00     0.028 A 
HETATM   15  C11 UNL     1     -37.217  15.137  50.318  1.00  0.00     0.026 A 
HETATM   16  C12 UNL     1     -39.613  12.040  50.090  1.00  0.00     0.004 A 
HETATM   17  C13 UNL     1     -36.878  14.386  50.339  1.00  0.00     0.054 A 
HETATM   18  C14 UNL     1     -36.738  15.808  50.364  1.00  0.00     0.026 A 
HETATM   19  C15 UNL     1     -40.330  12.445  50.034  1.00  0.00     0.013 A 
HETATM   20  C16 UNL     1     -39.605  11.215  50.083  1.00  0.00     0.004 A 
HETATM   21  C17 UNL     1     -36.061  14.304  50.406  1.00  0.00     0.024 A 
HETATM   22  C18 UNL     1     -35.920  15.726  50.431  1.00  0.00     0.024 A 
HETATM   23  C19 UNL     1     -41.037  12.027  49.972  1.00  0.00     0.002 A 
HETATM   24  C20 UNL     1     -40.314  10.796  50.020  1.00  0.00     0.002 A 
HETATM   25  C21 UNL     1     -35.581  14.974  50.452  1.00  0.00     0.024 A 
HETATM   26  C22 UNL     1     -41.030  11.202  49.964  1.00  0.00     0.002 A 
ENDROOT
TORSDOF 30
ENDMDL
