MODEL 1
REMARK VINA RESULT:      67.5      0.000      0.000
REMARK  13 active torsions:
REMARK  status: ('A' for Active; 'I' for Inactive)
REMARK    1  A    between atoms: O1_1  and  C1_5 
REMARK    2  A    between atoms: O1_1  and  C3_7 
REMARK    3  A    between atoms: N1_3  and  N2_4 
REMARK    4  A    between atoms: N1_3  and  C1_5 
REMARK    5  A    between atoms: C2_6  and  C8_12 
REMARK    6  A    between atoms: C3_7  and  C4_8 
REMARK    7  A    between atoms: C3_7  and  C5_9 
REMARK    8  A    between atoms: C3_7  and  C7_11 
REMARK    9  A    between atoms: C4_8  and  C6_10 
REMARK   10  A    between atoms: C4_8  and  C8_12 
REMARK   11  A    between atoms: C5_9  and  C9_13 
REMARK   12  A    between atoms: C6_10  and  C7_11 
REMARK   13  A    between atoms: C7_11  and  C8_12 
ROOT
HETATM    1  O1  UNL     1     -38.418  15.030  49.351  1.00  0.00     0.000 OA
HETATM    2  O2  UNL     1     -36.997  15.028  49.508  1.00  0.00     0.000 OA
HETATM    3  N1  UNL     1     -37.810  15.832  50.366  1.00  0.00     0.000 N 
HETATM    4  N2  UNL     1     -36.390  15.829  50.523  1.00  0.00    -0.132 NA
HETATM    5  C1  UNL     1     -39.230  15.834  50.208  1.00  0.00     0.001 A 
HETATM    6  C2  UNL     1     -39.906  15.567  49.817  1.00  0.00     0.001 A 
HETATM    7  C3  UNL     1     -39.837  15.033  49.193  1.00  0.00     0.001 A 
HETATM    8  C4  UNL     1     -40.650  15.837  50.051  1.00  0.00     0.000 A 
HETATM    9  C5  UNL     1     -38.486  15.565  49.975  1.00  0.00     0.018 A 
HETATM   10  C6  UNL     1     -40.513  14.766  48.803  1.00  0.00     0.000 A 
HETATM   11  C7  UNL     1     -41.326  15.570  49.660  1.00  0.00     0.000 A 
HETATM   12  C8  UNL     1     -41.258  15.035  49.035  1.00  0.00     0.000 A 
HETATM   13  C9  UNL     1     -37.066  15.563  50.133  1.00  0.00     0.109 A 
ENDROOT
TORSDOF 13
ENDMDL
