MODEL 1
REMARK VINA RESULT:     114.5      0.000      0.000
REMARK  25 active torsions:
REMARK  status: ('A' for Active; 'I' for Inactive)
REMARK    1  A    between atoms: N2_2  and  C12_15 
REMARK    2  A    between atoms: N3_3  and  C13_16 
REMARK    3  A    between atoms: C1_4  and  C2_5 
REMARK    4  A    between atoms: C1_4  and  C4_7 
REMARK    5  A    between atoms: C1_4  and  C8_11 
REMARK    6  A    between atoms: C1_4  and  C10_13 
REMARK    7  A    between atoms: C2_5  and  C5_8 
REMARK    8  A    between atoms: C2_5  and  C3_6 
REMARK    9  A    between atoms: C2_5  and  C9_12 
REMARK   10  A    between atoms: C2_5  and  C11_14 
REMARK   11  A    between atoms: C3_6  and  C10_13 
REMARK   12  A    between atoms: C3_6  and  C12_15 
REMARK   13  A    between atoms: C4_7  and  C5_8 
REMARK   14  A    between atoms: C4_7  and  C11_14 
REMARK   15  A    between atoms: C4_7  and  C13_16 
REMARK   16  A    between atoms: C5_8  and  C6_9 
REMARK   17  A    between atoms: C5_8  and  C7_10 
REMARK   18  A    between atoms: C6_9  and  C8_11 
REMARK   19  A    between atoms: C6_9  and  C10_13 
REMARK   20  A    between atoms: C7_10  and  C9_12 
REMARK   21  A    between atoms: C7_10  and  C11_14 
REMARK   22  A    between atoms: C8_11  and  C12_15 
REMARK   23  A    between atoms: C9_12  and  C13_16 
REMARK   24  A    between atoms: C10_13  and  C12_15 
REMARK   25  A    between atoms: C11_14  and  C13_16 
ROOT
HETATM    1  N1  UNL     1     -38.559  15.621  48.747  1.00  0.00     0.000 N 
HETATM    2  N2  UNL     1     -35.793  15.828  49.100  1.00  0.00    -0.280 NA
HETATM    3  N3  UNL     1     -41.321  15.413  48.355  1.00  0.00    -0.280 NA
HETATM    4  C1  UNL     1     -38.045  15.731  50.013  1.00  0.00     0.038 A 
HETATM    5  C2  UNL     1     -39.400  15.630  49.830  1.00  0.00     0.038 A 
HETATM    6  C3  UNL     1     -37.937  15.692  49.230  1.00  0.00     0.038 A 
HETATM    7  C4  UNL     1     -39.291  15.590  49.047  1.00  0.00     0.038 A 
HETATM    8  C5  UNL     1     -38.776  15.700  50.314  1.00  0.00     0.020 A 
HETATM    9  C6  UNL     1     -37.404  15.805  50.527  1.00  0.00     0.038 A 
HETATM   10  C7  UNL     1     -40.158  15.598  50.155  1.00  0.00     0.038 A 
HETATM   11  C8  UNL     1     -37.179  15.723  48.905  1.00  0.00     0.052 A 
HETATM   12  C9  UNL     1     -39.933  15.517  48.534  1.00  0.00     0.052 A 
HETATM   13  C10 UNL     1     -36.525  15.797  49.404  1.00  0.00     0.052 A 
HETATM   14  C11 UNL     1     -40.699  15.484  48.841  1.00  0.00     0.052 A 
HETATM   15  C12 UNL     1     -36.638  15.838  50.220  1.00  0.00     0.052 A 
HETATM   16  C13 UNL     1     -40.812  15.525  49.657  1.00  0.00     0.052 A 
ENDROOT
TORSDOF 25
ENDMDL
