MODEL 1
REMARK VINA RESULT:     207.2      0.000      0.000
REMARK WARNING: 32 MAX_TORS EXCEEDED!!!
REMARK  43 active torsions:
REMARK  status: ('A' for Active; 'I' for Inactive)
REMARK    1  A    between atoms: O2_2  and  C11_16 
REMARK    2  A    between atoms: N1_3  and  C11_16 
REMARK    3  A    between atoms: N1_3  and  C15_20 
REMARK    4  A    between atoms: N1_3  and  C18_23 
REMARK    5  A    between atoms: N2_4  and  C6_11 
REMARK    6  A    between atoms: N2_4  and  C7_12 
REMARK    7  A    between atoms: N2_4  and  C16_21 
REMARK    8  A    between atoms: N2_4  and  C17_22 
REMARK    9  A    between atoms: C1_6  and  C8_13 
REMARK   10  A    between atoms: C1_6  and  C9_14 
REMARK   11  A    between atoms: C1_6  and  C16_21 
REMARK   12  A    between atoms: C2_7  and  C3_8 
REMARK   13  A    between atoms: C2_7  and  C4_9 
REMARK   14  A    between atoms: C2_7  and  C6_11 
REMARK   15  A    between atoms: C3_8  and  C9_14 
REMARK   16  A    between atoms: C3_8  and  C4_9 
REMARK   17  A    between atoms: C3_8  and  C6_11 
REMARK   18  A    between atoms: C3_8  and  C8_13 
REMARK   19  A    between atoms: C4_9  and  C8_13 
REMARK   20  A    between atoms: C4_9  and  C10_15 
REMARK   21  A    between atoms: C4_9  and  C5_10 
REMARK   22  A    between atoms: C4_9  and  C7_12 
REMARK   23  A    between atoms: C4_9  and  C9_14 
REMARK   24  A    between atoms: C5_10  and  C8_13 
REMARK   25  A    between atoms: C5_10  and  C11_16 
REMARK   26  A    between atoms: C6_11  and  C7_12 
REMARK   27  A    between atoms: C6_11  and  C8_13 
REMARK   28  A    between atoms: C6_11  and  C9_14 
REMARK   29  A    between atoms: C6_11  and  C10_15 
REMARK   30  A    between atoms: C6_11  and  C11_16 
REMARK   31  A    between atoms: C7_12  and  C9_14 
REMARK   32  A    between atoms: C7_12  and  C11_16 
REMARK   33  A    between atoms: C8_13  and  C9_14 
REMARK   34  A    between atoms: C8_13  and  C10_15 
REMARK   35  A    between atoms: C9_14  and  C10_15 
REMARK   36  A    between atoms: C11_16  and  C16_21 
REMARK   37  A    between atoms: C11_16  and  C18_23 
REMARK   38  A    between atoms: C13_18  and  C17_22 
REMARK   39  A    between atoms: C14_19  and  C15_20 
REMARK   40  A    between atoms: C15_20  and  C17_22 
REMARK   41  A    between atoms: C15_20  and  C18_23 
REMARK   42  A    between atoms: C16_21  and  C17_22 
REMARK   43  A    between atoms: C17_22  and  C18_23 
ROOT
HETATM    1  O1  UNL     1     -39.527  15.833  47.582  1.00  0.00     0.000 OA
HETATM    2  N2  UNL     1     -40.799  13.155  49.556  1.00  0.00     0.000 N 
HETATM    3  N3  UNL     1     -41.321  12.566  50.377  1.00  0.00    -0.183 NA
HETATM    4  C1  UNL     1     -40.266  14.191  48.728  1.00  0.00     0.002 A 
HETATM    5  C2  UNL     1     -39.905  15.403  48.176  1.00  0.00     0.000 A 
HETATM    6  C3  UNL     1     -40.770  15.078  49.549  1.00  0.00     0.000 A 
HETATM    7  C4  UNL     1     -40.638  15.368  49.344  1.00  0.00     0.000 A 
HETATM    8  C5  UNL     1     -39.902  14.606  48.155  1.00  0.00     0.002 A 
HETATM    9  C6  UNL     1     -40.567  14.649  49.216  1.00  0.00     0.002 A 
HETATM   10  C7  UNL     1     -40.749  14.236  49.498  1.00  0.00     0.002 A 
HETATM   11  C8  UNL     1     -40.274  15.783  48.771  1.00  0.00     0.000 A 
HETATM   12  C9  UNL     1     -40.375  15.528  48.929  1.00  0.00     0.000 A 
HETATM   13  C10 UNL     1     -41.006  15.748  49.940  1.00  0.00     0.000 A 
HETATM   14  C11 UNL     1     -40.376  13.388  48.887  1.00  0.00     0.018 A 
HETATM   15  C18 UNL     1     -40.951  12.134  49.779  1.00  0.00     0.104 A 
ENDROOT
BRANCH   4  16
HETATM   16  C16 UNL     1     -40.064  12.820  48.377  1.00  0.00     0.004 A 
HETATM   17  O2  UNL     1     -39.274  12.877  48.610  1.00  0.00     0.000 OA
HETATM   18  N1  UNL     1     -40.358  12.106  48.085  1.00  0.00     0.000 N 
HETATM   19  C12 UNL     1     -39.929  11.407  47.995  1.00  0.00     0.004 A 
HETATM   20  C17 UNL     1     -41.130  11.967  47.832  1.00  0.00     0.021 A 
HETATM   21  C13 UNL     1     -40.437  10.835  47.687  1.00  0.00     0.004 A 
HETATM   22  C14 UNL     1     -39.650  10.644  47.846  1.00  0.00     0.002 A 
HETATM   23  C15 UNL     1     -41.180  11.181  47.585  1.00  0.00     0.021 A 
ENDBRANCH   4  16
TORSDOF 43
ENDMDL
