MODEL 1
REMARK VINA RESULT:     224.9      0.000      0.000
REMARK  25 active torsions:
REMARK  status: ('A' for Active; 'I' for Inactive)
REMARK    1  A    between atoms: O3_3  and  C14_17 
REMARK    2  A    between atoms: C1_4  and  C4_7 
REMARK    3  A    between atoms: C1_4  and  C5_8 
REMARK    4  A    between atoms: C2_5  and  C3_6 
REMARK    5  A    between atoms: C2_5  and  C5_8 
REMARK    6  A    between atoms: C3_6  and  C4_7 
REMARK    7  A    between atoms: C3_6  and  C6_9 
REMARK    8  A    between atoms: C4_7  and  C5_8 
REMARK    9  A    between atoms: C4_7  and  C8_11 
REMARK   10  A    between atoms: C4_7  and  C12_15 
REMARK   11  A    between atoms: C5_8  and  C7_10 
REMARK   12  A    between atoms: C5_8  and  C11_14 
REMARK   13  A    between atoms: C6_9  and  C15_18 
REMARK   14  A    between atoms: C7_10  and  C8_11 
REMARK   15  A    between atoms: C7_10  and  C12_15 
REMARK   16  A    between atoms: C8_11  and  C11_14 
REMARK   17  A    between atoms: C9_12  and  C10_13 
REMARK   18  A    between atoms: C9_12  and  C14_17 
REMARK   19  A    between atoms: C9_12  and  C15_18 
REMARK   20  A    between atoms: C10_13  and  C13_16 
REMARK   21  A    between atoms: C10_13  and  C15_18 
REMARK   22  A    between atoms: C11_14  and  C12_15 
REMARK   23  A    between atoms: C13_16  and  C14_17 
REMARK   24  A    between atoms: C14_17  and  C15_18 
REMARK   25  A    between atoms: C14_17  and  C16_19 
ROOT
HETATM    1  O1  UNL     1     -36.739  14.156  50.504  1.00  0.00     0.000 OA
HETATM    2  O2  UNL     1     -38.909  12.238  50.527  1.00  0.00     0.000 OA
HETATM    3  O3  UNL     1     -40.159  15.838  50.510  1.00  0.00     0.000 OA
HETATM    4  C1  UNL     1     -37.973  13.365  50.515  1.00  0.00     0.000 A 
HETATM    5  C2  UNL     1     -37.157  13.445  50.511  1.00  0.00     0.000 A 
HETATM    6  C3  UNL     1     -38.152  12.565  50.522  1.00  0.00     0.000 A 
HETATM    7  C4  UNL     1     -36.829  12.693  50.514  1.00  0.00     0.000 A 
HETATM    8  C5  UNL     1     -37.446  12.147  50.521  1.00  0.00     0.000 A 
HETATM    9  C6  UNL     1     -38.519  13.983  50.514  1.00  0.00     0.000 A 
HETATM   10  C7  UNL     1     -36.046  12.431  50.512  1.00  0.00     0.000 A 
HETATM   11  C8  UNL     1     -37.283  11.338  50.526  1.00  0.00     0.000 A 
HETATM   12  C9  UNL     1     -38.257  14.766  50.508  1.00  0.00     0.000 A 
HETATM   13  C10 UNL     1     -39.329  13.819  50.519  1.00  0.00     0.000 A 
HETATM   14  C11 UNL     1     -35.882  11.622  50.517  1.00  0.00     0.000 A 
HETATM   15  C12 UNL     1     -36.500  11.076  50.524  1.00  0.00     0.000 A 
HETATM   16  C13 UNL     1     -38.804  15.385  50.506  1.00  0.00     0.000 A 
HETATM   17  C14 UNL     1     -39.875  14.438  50.517  1.00  0.00     0.000 A 
HETATM   18  C15 UNL     1     -39.612  15.220  50.511  1.00  0.00     0.000 A 
HETATM   19  C16 UNL     1     -40.968  15.674  50.515  1.00  0.00     0.000 A 
ENDROOT
TORSDOF 25
ENDMDL
