MODEL 1
REMARK VINA RESULT:     165.7      0.000      0.000
REMARK  20 active torsions:
REMARK  status: ('A' for Active; 'I' for Inactive)
REMARK    1  A    between atoms: CL1_1  and  C10_16 
REMARK    2  A    between atoms: N1_2  and  N5_6 
REMARK    3  A    between atoms: N2_3  and  N3_4 
REMARK    4  A    between atoms: N3_4  and  C8_14 
REMARK    5  A    between atoms: N3_4  and  N4_5 
REMARK    6  A    between atoms: N3_4  and  N5_6 
REMARK    7  A    between atoms: N4_5  and  C2_8 
REMARK    8  A    between atoms: N5_6  and  C6_12 
REMARK    9  A    between atoms: C2_8  and  C3_9 
REMARK   10  A    between atoms: C2_8  and  C5_11 
REMARK   11  A    between atoms: C4_10  and  C11_17 
REMARK   12  A    between atoms: C5_11  and  C8_14 
REMARK   13  A    between atoms: C6_12  and  C7_13 
REMARK   14  A    between atoms: C6_12  and  C8_14 
REMARK   15  A    between atoms: C6_12  and  C10_16 
REMARK   16  A    between atoms: C6_12  and  C11_17 
REMARK   17  A    between atoms: C7_13  and  C9_15 
REMARK   18  A    between atoms: C7_13  and  C11_17 
REMARK   19  A    between atoms: C9_15  and  C10_16 
REMARK   20  A    between atoms: C10_16  and  C11_17 
ROOT
HETATM    1 CL1  UNL     1     -41.321  15.125  50.390  1.00  0.00    -0.251 Cl
HETATM    2  N2  UNL     1     -38.021  15.105  50.388  1.00  0.00     0.000 N 
HETATM    3  N5  UNL     1     -38.029  13.681  50.499  1.00  0.00     0.000 N 
HETATM    4  C4  UNL     1     -38.846  15.110  50.389  1.00  0.00     0.035 A 
HETATM    5  C6  UNL     1     -39.263  14.401  50.444  1.00  0.00     0.035 A 
HETATM    6  C7  UNL     1     -39.254  15.826  50.334  1.00  0.00     0.035 A 
HETATM    7  C8  UNL     1     -37.613  14.391  50.443  1.00  0.00     0.040 A 
HETATM    8  C9  UNL     1     -40.088  14.406  50.445  1.00  0.00     0.048 A 
HETATM    9  C10 UNL     1     -40.079  15.831  50.334  1.00  0.00     0.048 A 
HETATM   10  C11 UNL     1     -40.496  15.120  50.390  1.00  0.00     0.048 A 
ENDROOT
BRANCH   2  11
HETATM   11  N3  UNL     1     -36.788  14.386  50.443  1.00  0.00     0.000 N 
HETATM   12  C5  UNL     1     -36.379  13.670  50.470  1.00  0.00     0.259 A 
HETATM   13  N1  UNL     1     -36.796  12.957  50.470  1.00  0.00     0.000 N 
HETATM   14  N4  UNL     1     -35.555  13.666  50.497  1.00  0.00     0.335 N 
HETATM   15  C1  UNL     1     -36.386  12.241  50.497  1.00  0.00     0.070 A 
HETATM   16  C2  UNL     1     -35.562  12.238  50.524  1.00  0.00     0.259 A 
HETATM   17  C3  UNL     1     -36.803  11.528  50.497  1.00  0.00     0.040 A 
ENDBRANCH   2  11
TORSDOF 20
ENDMDL
