MODEL 1
REMARK VINA RESULT:     101.1      0.000      0.000
REMARK  27 active torsions:
REMARK  status: ('A' for Active; 'I' for Inactive)
REMARK    1  A    between atoms: CL1_1  and  C6_16 
REMARK    2  A    between atoms: S1_2  and  P2_4 
REMARK    3  A    between atoms: S1_2  and  O5_9 
REMARK    4  A    between atoms: S1_2  and  O6_10 
REMARK    5  A    between atoms: P1_3  and  P2_4 
REMARK    6  A    between atoms: P1_3  and  O4_8 
REMARK    7  A    between atoms: P2_4  and  C1_11 
REMARK    8  A    between atoms: P2_4  and  O2_6 
REMARK    9  A    between atoms: P2_4  and  C2_12 
REMARK   10  A    between atoms: P2_4  and  C3_13 
REMARK   11  A    between atoms: O2_6  and  O4_8 
REMARK   12  A    between atoms: O2_6  and  C1_11 
REMARK   13  A    between atoms: O4_8  and  C1_11 
REMARK   14  A    between atoms: O5_9  and  C1_11 
REMARK   15  A    between atoms: O6_10  and  C1_11 
REMARK   16  A    between atoms: O6_10  and  C2_12 
REMARK   17  A    between atoms: O6_10  and  C3_13 
REMARK   18  A    between atoms: O6_10  and  C5_15 
REMARK   19  A    between atoms: C1_11  and  C3_13 
REMARK   20  A    between atoms: C2_12  and  C7_17 
REMARK   21  A    between atoms: C3_13  and  C4_14 
REMARK   22  A    between atoms: C3_13  and  C6_16 
REMARK   23  A    between atoms: C3_13  and  C7_17 
REMARK   24  A    between atoms: C4_14  and  C5_15 
REMARK   25  A    between atoms: C4_14  and  C7_17 
REMARK   26  A    between atoms: C5_15  and  C6_16 
REMARK   27  A    between atoms: C6_16  and  C7_17 
ROOT
HETATM    1 CL1  UNL     1     -36.745  15.827  50.525  1.00  0.00    -0.242 Cl
HETATM    2  S1  UNL     1     -39.282  15.749  48.417  1.00  0.00    -0.190 SA
HETATM    3  P1  UNL     1     -40.690  15.694  48.177  1.00  0.00    -0.022 P 
HETATM    4  O1  UNL     1     -41.324  15.675  47.650  1.00  0.00     0.000 OA
HETATM    5  O2  UNL     1     -41.216  15.666  48.812  1.00  0.00     0.000 OA
HETATM    6  O5  UNL     1     -40.163  15.723  47.542  1.00  0.00     0.000 OA
HETATM    7  C1  UNL     1     -40.055  15.714  48.704  1.00  0.00     0.071 A 
HETATM    8  C2  UNL     1     -38.648  15.768  48.944  1.00  0.00     0.067 A 
HETATM    9  C3  UNL     1     -38.787  15.753  49.758  1.00  0.00     0.067 A 
HETATM   10  C4  UNL     1     -37.875  15.803  48.659  1.00  0.00     0.064 A 
HETATM   11  C5  UNL     1     -38.152  15.773  50.285  1.00  0.00     0.074 A 
HETATM   12  C6  UNL     1     -37.240  15.822  49.186  1.00  0.00     0.074 A 
HETATM   13  C7  UNL     1     -37.379  15.808  49.998  1.00  0.00     0.074 A 
ENDROOT
BRANCH  11  14
HETATM   14  O6  UNL     1     -39.381  15.731  49.656  1.00  0.00     0.000 OA
HETATM   15  P2  UNL     1     -40.192  15.671  49.515  1.00  0.00    -0.037 P 
HETATM   16  O3  UNL     1     -40.325  15.564  50.323  1.00  0.00     0.000 OA
HETATM   17  O4  UNL     1     -41.003  15.611  49.374  1.00  0.00     0.000 OA
ENDBRANCH  11  14
TORSDOF 27
ENDMDL
