MODEL 1
REMARK VINA RESULT:     389.7      0.000      0.000
REMARK WARNING: 32 MAX_TORS EXCEEDED!!!
REMARK  37 active torsions:
REMARK  status: ('A' for Active; 'I' for Inactive)
REMARK    1  A    between atoms: F1_1  and  C13_21 
REMARK    2  A    between atoms: O1_2  and  C2_10 
REMARK    3  A    between atoms: O1_2  and  C3_11 
REMARK    4  A    between atoms: O1_2  and  C5_13 
REMARK    5  A    between atoms: O2_3  and  C17_25 
REMARK    6  A    between atoms: N1_6  and  C6_14 
REMARK    7  A    between atoms: N1_6  and  C8_16 
REMARK    8  A    between atoms: N1_6  and  C11_19 
REMARK    9  A    between atoms: N2_7  and  C6_14 
REMARK   10  A    between atoms: N3_8  and  C2_10 
REMARK   11  A    between atoms: C1_9  and  C8_16 
REMARK   12  A    between atoms: C2_10  and  C8_16 
REMARK   13  A    between atoms: C2_10  and  C4_12 
REMARK   14  A    between atoms: C2_10  and  C6_14 
REMARK   15  A    between atoms: C2_10  and  C7_15 
REMARK   16  A    between atoms: C4_12  and  C5_13 
REMARK   17  A    between atoms: C4_12  and  C10_18 
REMARK   18  A    between atoms: C4_12  and  C13_21 
REMARK   19  A    between atoms: C5_13  and  C6_14 
REMARK   20  A    between atoms: C5_13  and  C11_19 
REMARK   21  A    between atoms: C5_13  and  C12_20 
REMARK   22  A    between atoms: C5_13  and  C15_23 
REMARK   23  A    between atoms: C5_13  and  C17_25 
REMARK   24  A    between atoms: C6_14  and  C10_18 
REMARK   25  A    between atoms: C6_14  and  C11_19 
REMARK   26  A    between atoms: C6_14  and  C13_21 
REMARK   27  A    between atoms: C8_16  and  C16_24 
REMARK   28  A    between atoms: C9_17  and  C14_22 
REMARK   29  A    between atoms: C10_18  and  C11_19 
REMARK   30  A    between atoms: C10_18  and  C12_20 
REMARK   31  A    between atoms: C10_18  and  C17_25 
REMARK   32  A    between atoms: C11_19  and  C13_21 
REMARK   33  A    between atoms: C12_20  and  C15_23 
REMARK   34  A    between atoms: C12_20  and  C18_26 
REMARK   35  A    between atoms: C13_21  and  C15_23 
REMARK   36  A    between atoms: C15_23  and  C17_25 
REMARK   37  A    between atoms: C15_23  and  C18_26 
ROOT
HETATM    1  F1  UNL     1     -37.781  14.983  50.126  1.00  0.00    -0.551 F 
HETATM    2  O1  UNL     1     -39.522  12.689  50.154  1.00  0.00     0.000 OA
HETATM    3  O2  UNL     1     -35.915  12.707  49.795  1.00  0.00     0.000 OA
HETATM    4  O3  UNL     1     -36.168  10.264  49.666  1.00  0.00    -0.323 OA
HETATM    5  O4  UNL     1     -35.338  11.428  49.657  1.00  0.00    -0.323 OA
HETATM    6  N1  UNL     1     -39.290  14.326  50.235  1.00  0.00     0.000 N 
HETATM    7  N2  UNL     1     -38.162  11.676  49.954  1.00  0.00     0.000 N 
HETATM    8  N3  UNL     1     -40.603  15.306  50.428  1.00  0.00     0.000 N 
HETATM    9  C1  UNL     1     -39.192  15.144  50.277  1.00  0.00     0.057 A 
HETATM   10  C2  UNL     1     -40.044  13.998  50.289  1.00  0.00     0.046 A 
HETATM   11  C3  UNL     1     -38.946  11.327  50.011  1.00  0.00     0.019 A 
HETATM   12  C4  UNL     1     -38.633  13.837  50.138  1.00  0.00     0.062 A 
HETATM   13  C5  UNL     1     -38.074  12.529  50.000  1.00  0.00     0.087 A 
HETATM   14  C6  UNL     1     -38.731  13.019  50.096  1.00  0.00     0.065 A 
HETATM   15  C7  UNL     1     -39.849  15.635  50.373  1.00  0.00     0.027 A 
HETATM   16  C8  UNL     1     -40.701  14.487  50.386  1.00  0.00     0.027 A 
HETATM   17  C9  UNL     1     -39.630  11.837  50.111  1.00  0.00     0.007 A 
HETATM   18  C10 UNL     1     -37.319  12.858  49.945  1.00  0.00     0.095 A 
HETATM   19  C11 UNL     1     -37.878  14.165  50.084  1.00  0.00     0.071 A 
HETATM   20  C12 UNL     1     -37.493  11.215  49.858  1.00  0.00     0.100 A 
HETATM   21  C13 UNL     1     -37.221  13.676  49.987  1.00  0.00     0.067 A 
HETATM   22  C14 UNL     1     -39.041  10.509  49.968  1.00  0.00     0.001 A 
HETATM   23  C15 UNL     1     -36.667  12.373  49.849  1.00  0.00     0.113 A 
HETATM   24  C16 UNL     1     -41.261  15.796  50.525  1.00  0.00     0.005 A 
HETATM   25  C17 UNL     1     -36.753  11.560  49.806  1.00  0.00     0.150 A 
HETATM   26  C18 UNL     1     -36.086  11.084  49.710  1.00  0.00     0.194 A 
ENDROOT
TORSDOF 37
ENDMDL
