MODEL 1
REMARK VINA RESULT:      99.6      0.000      0.000
REMARK  7 active torsions:
REMARK  status: ('A' for Active; 'I' for Inactive)
REMARK    1  A    between atoms: S1_1  and  C3_10 
REMARK    2  A    between atoms: O1_3  and  O2_4 
REMARK    3  A    between atoms: O1_3  and  O3_5 
REMARK    4  A    between atoms: O3_5  and  C4_11 
REMARK    5  A    between atoms: N1_6  and  C4_11 
REMARK    6  A    between atoms: C1_8  and  C5_12 
REMARK    7  A    between atoms: C3_10  and  C4_11 
ROOT
HETATM    1  S1  UNL     1     -40.014  15.189  50.162  1.00  0.00    -0.095 SA
HETATM    2  P1  UNL     1     -40.635  15.463  49.693  1.00  0.00     0.036 P 
HETATM    3  O1  UNL     1     -41.257  15.737  49.225  1.00  0.00     0.000 OA
HETATM    4  O2  UNL     1     -41.096  15.573  50.369  1.00  0.00     0.000 OA
HETATM    5  O3  UNL     1     -40.175  15.354  49.018  1.00  0.00     0.000 OA
HETATM    6  C4  UNL     1     -39.303  14.958  49.810  1.00  0.00     0.262 A 
ENDROOT
BRANCH   1   7
HETATM    7  C3  UNL     1     -38.682  14.684  50.279  1.00  0.00     0.272 A 
HETATM    8  N1  UNL     1     -38.158  14.047  50.286  1.00  0.00     0.037 N 
HETATM    9  C1  UNL     1     -37.351  14.179  50.396  1.00  0.00     0.273 A 
HETATM   10  C2  UNL     1     -36.827  13.541  50.404  1.00  0.00     0.296 A 
HETATM   11  C5  UNL     1     -36.019  13.673  50.514  1.00  0.00     0.184 A 
HETATM   12  N2  UNL     1     -35.495  13.036  50.521  1.00  0.00    -0.265 NA
ENDBRANCH   1   7
TORSDOF 7
ENDMDL
