MODEL 1
REMARK VINA RESULT:     283.2      0.000      0.000
REMARK  26 active torsions:
REMARK  status: ('A' for Active; 'I' for Inactive)
REMARK    1  A    between atoms: N1_1  and  C7_9 
REMARK    2  A    between atoms: C1_3  and  C3_5 
REMARK    3  A    between atoms: C2_4  and  C4_6 
REMARK    4  A    between atoms: C3_5  and  C11_13 
REMARK    5  A    between atoms: C3_5  and  C16_18 
REMARK    6  A    between atoms: C4_6  and  C7_9 
REMARK    7  A    between atoms: C4_6  and  C5_7 
REMARK    8  A    between atoms: C4_6  and  C8_10 
REMARK    9  A    between atoms: C4_6  and  C12_14 
REMARK   10  A    between atoms: C4_6  and  C17_19 
REMARK   11  A    between atoms: C5_7  and  C9_11 
REMARK   12  A    between atoms: C5_7  and  C10_12 
REMARK   13  A    between atoms: C5_7  and  C13_15 
REMARK   14  A    between atoms: C6_8  and  C9_11 
REMARK   15  A    between atoms: C6_8  and  C14_16 
REMARK   16  A    between atoms: C7_9  and  C10_12 
REMARK   17  A    between atoms: C7_9  and  C15_17 
REMARK   18  A    between atoms: C8_10  and  C10_12 
REMARK   19  A    between atoms: C9_11  and  C11_13 
REMARK   20  A    between atoms: C9_11  and  C16_18 
REMARK   21  A    between atoms: C10_12  and  C12_14 
REMARK   22  A    between atoms: C10_12  and  C17_19 
REMARK   23  A    between atoms: C11_13  and  C14_16 
REMARK   24  A    between atoms: C12_14  and  C15_17 
REMARK   25  A    between atoms: C14_16  and  C16_18 
REMARK   26  A    between atoms: C15_17  and  C17_19 
ROOT
HETATM    1  N1  UNL     1     -38.647  14.068  49.493  1.00  0.00     0.000 N 
HETATM    2  N2  UNL     1     -38.057  11.554  50.423  1.00  0.00    -0.274 NA
HETATM    3  C1  UNL     1     -38.559  15.804  49.111  1.00  0.00     0.000 A 
HETATM    4  C2  UNL     1     -37.880  15.674  49.498  1.00  0.00     0.001 A 
HETATM    5  C3  UNL     1     -39.174  14.515  49.106  1.00  0.00     0.003 A 
HETATM    6  C4  UNL     1     -37.951  14.281  49.805  1.00  0.00     0.011 A 
HETATM    7  C5  UNL     1     -38.842  13.305  49.579  1.00  0.00     0.025 A 
HETATM    8  C6  UNL     1     -39.134  15.288  48.936  1.00  0.00     0.000 A 
HETATM    9  C7  UNL     1     -37.610  14.997  49.807  1.00  0.00     0.002 A 
HETATM   10  C8  UNL     1     -38.352  12.811  49.958  1.00  0.00     0.049 A 
HETATM   11  C9  UNL     1     -39.825  14.064  48.877  1.00  0.00     0.002 A 
HETATM   12  C10 UNL     1     -37.581  13.635  50.159  1.00  0.00     0.013 A 
HETATM   13  C11 UNL     1     -39.744  15.662  48.524  1.00  0.00     0.000 A 
HETATM   14  C12 UNL     1     -36.874  15.114  50.164  1.00  0.00     0.002 A 
HETATM   15  C13 UNL     1     -38.547  12.048  50.044  1.00  0.00     0.072 A 
HETATM   16  C14 UNL     1     -40.443  14.421  48.464  1.00  0.00     0.000 A 
HETATM   17  C15 UNL     1     -36.846  13.733  50.519  1.00  0.00     0.002 A 
HETATM   18  C16 UNL     1     -40.403  15.226  48.287  1.00  0.00     0.000 A 
HETATM   19  C17 UNL     1     -36.490  14.479  50.522  1.00  0.00     0.002 A 
HETATM   20  C18 UNL     1     -38.252  10.791  50.509  1.00  0.00     0.088 A 
ENDROOT
TORSDOF 26
ENDMDL
