MODEL 1
REMARK VINA RESULT:      13.3      0.000      0.000
REMARK  17 active torsions:
REMARK  status: ('A' for Active; 'I' for Inactive)
REMARK    1  A    between atoms: O2_2  and  C5_14 
REMARK    2  A    between atoms: O6_6  and  C23_32 
REMARK    3  A    between atoms: O8_8  and  C22_31 
REMARK    4  A    between atoms: N1_9  and  C24_33 
REMARK    5  A    between atoms: C1_10  and  C5_14 
REMARK    6  A    between atoms: C2_11  and  C5_14 
REMARK    7  A    between atoms: C3_12  and  C4_13 
REMARK    8  A    between atoms: C3_12  and  C6_15 
REMARK    9  A    between atoms: C4_13  and  C5_14 
REMARK   10  A    between atoms: C4_13  and  C7_16 
REMARK   11  A    between atoms: C6_15  and  C13_22 
REMARK   12  A    between atoms: C7_16  and  C10_19 
REMARK   13  A    between atoms: C9_18  and  C12_21 
REMARK   14  A    between atoms: C15_24  and  C20_29 
REMARK   15  A    between atoms: C22_31  and  C23_32 
REMARK   16  A    between atoms: C22_31  and  C24_33 
REMARK   17  A    between atoms: C23_32  and  C24_33 
ROOT
HETATM    1  O6  UNL     1     -41.232  15.524  50.520  1.00  0.00     0.000 OA
HETATM    2  O7  UNL     1     -39.230  15.799  50.526  1.00  0.00     0.000 OA
HETATM    3  O8  UNL     1     -41.241  15.630  48.502  1.00  0.00     0.000 OA
HETATM    4  N1  UNL     1     -39.447  15.834  49.304  1.00  0.00     0.137 N 
HETATM    5  C21 UNL     1     -40.235  15.715  49.514  1.00  0.00     0.254 A 
HETATM    6  C22 UNL     1     -41.024  15.595  49.726  1.00  0.00     0.100 A 
HETATM    7  C23 UNL     1     -40.020  15.702  50.311  1.00  0.00     0.254 A 
HETATM    8  C24 UNL     1     -40.450  15.727  48.718  1.00  0.00     0.254 A 
ENDROOT
TORSDOF 17
ENDMDL
