MODEL 1
REMARK VINA RESULT:     272.5      0.000      0.000
REMARK  16 active torsions:
REMARK  status: ('A' for Active; 'I' for Inactive)
REMARK    1  A    between atoms: CL1_1  and  O2_3 
REMARK    2  A    between atoms: N2_5  and  C13_18 
REMARK    3  A    between atoms: C2_7  and  C3_8 
REMARK    4  A    between atoms: C2_7  and  C6_11 
REMARK    5  A    between atoms: C3_8  and  C4_9 
REMARK    6  A    between atoms: C3_8  and  C5_10 
REMARK    7  A    between atoms: C5_10  and  C6_11 
REMARK    8  A    between atoms: C8_13  and  C11_16 
REMARK    9  A    between atoms: C8_13  and  C12_17 
REMARK   10  A    between atoms: C9_14  and  C10_15 
REMARK   11  A    between atoms: C9_14  and  C11_16 
REMARK   12  A    between atoms: C9_14  and  C13_18 
REMARK   13  A    between atoms: C10_15  and  C11_16 
REMARK   14  A    between atoms: C10_15  and  C12_17 
REMARK   15  A    between atoms: C11_16  and  C13_18 
REMARK   16  A    between atoms: C12_17  and  C13_18 
ROOT
HETATM    1 CL1  UNL     1     -38.464  10.350  50.486  1.00  0.00    -0.270 Cl
HETATM    2  O1  UNL     1     -38.581  12.822  50.515  1.00  0.00     0.000 OA
HETATM    3  O2  UNL     1     -37.809  11.620  50.492  1.00  0.00     0.000 OA
HETATM    4  N1  UNL     1     -37.231  14.538  50.517  1.00  0.00     0.000 N 
HETATM    5  N2  UNL     1     -41.319  10.216  50.522  1.00  0.00    -0.266 NA
HETATM    6  C1  UNL     1     -37.925  14.092  50.521  1.00  0.00     0.001 A 
HETATM    7  C2  UNL     1     -37.270  15.361  50.527  1.00  0.00     0.000 A 
HETATM    8  C3  UNL     1     -36.498  14.159  50.503  1.00  0.00     0.001 A 
HETATM    9  C4  UNL     1     -37.886  13.268  50.511  1.00  0.00     0.012 A 
HETATM   10  C5  UNL     1     -36.575  15.807  50.523  1.00  0.00     0.000 A 
HETATM   11  C6  UNL     1     -35.804  14.605  50.499  1.00  0.00     0.000 A 
HETATM   12  C7  UNL     1     -38.542  11.998  50.506  1.00  0.00     0.055 A 
HETATM   13  C8  UNL     1     -39.236  11.553  50.510  1.00  0.00     0.074 A 
HETATM   14  C9  UNL     1     -39.198  10.729  50.500  1.00  0.00     0.074 A 
HETATM   15  C10 UNL     1     -39.969  11.930  50.524  1.00  0.00     0.075 A 
HETATM   16  C11 UNL     1     -40.624  10.661  50.518  1.00  0.00     0.082 A 
HETATM   17  C12 UNL     1     -39.892  10.283  50.504  1.00  0.00     0.077 A 
HETATM   18  C13 UNL     1     -40.663  11.485  50.528  1.00  0.00     0.082 A 
ENDROOT
TORSDOF 16
ENDMDL
