MODEL 1
REMARK VINA RESULT:     388.2      0.000      0.000
REMARK WARNING: 32 MAX_TORS EXCEEDED!!!
REMARK  37 active torsions:
REMARK  status: ('A' for Active; 'I' for Inactive)
REMARK    1  A    between atoms: F1_1  and  C13_21 
REMARK    2  A    between atoms: O1_2  and  C2_10 
REMARK    3  A    between atoms: O1_2  and  C3_11 
REMARK    4  A    between atoms: O1_2  and  C5_13 
REMARK    5  A    between atoms: O2_3  and  C17_25 
REMARK    6  A    between atoms: N1_6  and  C6_14 
REMARK    7  A    between atoms: N1_6  and  C8_16 
REMARK    8  A    between atoms: N1_6  and  C11_19 
REMARK    9  A    between atoms: N2_7  and  C6_14 
REMARK   10  A    between atoms: N3_8  and  C2_10 
REMARK   11  A    between atoms: C1_9  and  C8_16 
REMARK   12  A    between atoms: C2_10  and  C8_16 
REMARK   13  A    between atoms: C2_10  and  C4_12 
REMARK   14  A    between atoms: C2_10  and  C6_14 
REMARK   15  A    between atoms: C2_10  and  C7_15 
REMARK   16  A    between atoms: C4_12  and  C5_13 
REMARK   17  A    between atoms: C4_12  and  C10_18 
REMARK   18  A    between atoms: C4_12  and  C13_21 
REMARK   19  A    between atoms: C5_13  and  C6_14 
REMARK   20  A    between atoms: C5_13  and  C11_19 
REMARK   21  A    between atoms: C5_13  and  C12_20 
REMARK   22  A    between atoms: C5_13  and  C15_23 
REMARK   23  A    between atoms: C5_13  and  C17_25 
REMARK   24  A    between atoms: C6_14  and  C10_18 
REMARK   25  A    between atoms: C6_14  and  C11_19 
REMARK   26  A    between atoms: C6_14  and  C13_21 
REMARK   27  A    between atoms: C8_16  and  C16_24 
REMARK   28  A    between atoms: C9_17  and  C14_22 
REMARK   29  A    between atoms: C10_18  and  C11_19 
REMARK   30  A    between atoms: C10_18  and  C12_20 
REMARK   31  A    between atoms: C10_18  and  C17_25 
REMARK   32  A    between atoms: C11_19  and  C13_21 
REMARK   33  A    between atoms: C12_20  and  C15_23 
REMARK   34  A    between atoms: C12_20  and  C18_26 
REMARK   35  A    between atoms: C13_21  and  C15_23 
REMARK   36  A    between atoms: C15_23  and  C17_25 
REMARK   37  A    between atoms: C15_23  and  C18_26 
ROOT
HETATM    1  F1  UNL     1     -38.456  11.600  48.266  1.00  0.00    -0.551 F 
HETATM    2  O1  UNL     1     -37.968  13.682  50.196  1.00  0.00     0.000 OA
HETATM    3  O2  UNL     1     -40.507  13.634  47.609  1.00  0.00     0.000 OA
HETATM    4  O3  UNL     1     -41.117  15.836  48.517  1.00  0.00    -0.323 OA
HETATM    5  O4  UNL     1     -41.327  14.781  47.577  1.00  0.00    -0.323 OA
HETATM    6  N1  UNL     1     -37.603  12.206  49.542  1.00  0.00     0.000 N 
HETATM    7  N2  UNL     1     -39.254  14.583  49.524  1.00  0.00     0.000 N 
HETATM    8  N3  UNL     1     -36.361  11.336  50.191  1.00  0.00     0.000 N 
HETATM    9  C1  UNL     1     -37.409  11.468  49.229  1.00  0.00     0.057 A 
HETATM   10  C2  UNL     1     -37.177  12.508  50.180  1.00  0.00     0.046 A 
HETATM   11  C3  UNL     1     -38.814  14.904  50.189  1.00  0.00     0.019 A 
HETATM   12  C4  UNL     1     -38.225  12.640  49.217  1.00  0.00     0.062 A 
HETATM   13  C5  UNL     1     -39.041  13.813  49.207  1.00  0.00     0.087 A 
HETATM   14  C6  UNL     1     -38.420  13.378  49.531  1.00  0.00     0.065 A 
HETATM   15  C7  UNL     1     -36.787  11.033  49.553  1.00  0.00     0.027 A 
HETATM   16  C8  UNL     1     -36.556  12.073  50.504  1.00  0.00     0.027 A 
HETATM   17  C9  UNL     1     -38.167  14.451  50.527  1.00  0.00     0.007 A 
HETATM   18  C10 UNL     1     -39.468  13.510  48.569  1.00  0.00     0.095 A 
HETATM   19  C11 UNL     1     -38.651  12.338  48.580  1.00  0.00     0.071 A 
HETATM   20  C12 UNL     1     -39.875  14.991  49.183  1.00  0.00     0.100 A 
HETATM   21  C13 UNL     1     -39.273  12.773  48.255  1.00  0.00     0.067 A 
HETATM   22  C14 UNL     1     -39.011  15.641  50.501  1.00  0.00     0.001 A 
HETATM   23  C15 UNL     1     -40.084  13.941  48.246  1.00  0.00     0.113 A 
HETATM   24  C16 UNL     1     -35.740  10.900  50.515  1.00  0.00     0.005 A 
HETATM   25  C17 UNL     1     -40.286  14.674  48.550  1.00  0.00     0.150 A 
HETATM   26  C18 UNL     1     -40.910  15.097  48.214  1.00  0.00     0.194 A 
ENDROOT
TORSDOF 37
ENDMDL
