MODEL 1
REMARK VINA RESULT:     220.0      0.000      0.000
REMARK  15 active torsions:
REMARK  status: ('A' for Active; 'I' for Inactive)
REMARK    1  A    between atoms: O1_1  and  C7_11 
REMARK    2  A    between atoms: N1_2  and  C3_7 
REMARK    3  A    between atoms: C2_6  and  C3_7 
REMARK    4  A    between atoms: C2_6  and  C10_14 
REMARK    5  A    between atoms: C2_6  and  C11_15 
REMARK    6  A    between atoms: C3_7  and  C8_12 
REMARK    7  A    between atoms: C3_7  and  C9_13 
REMARK    8  A    between atoms: C4_8  and  C7_11 
REMARK    9  A    between atoms: C6_10  and  C7_11 
REMARK   10  A    between atoms: C8_12  and  C10_14 
REMARK   11  A    between atoms: C8_12  and  C9_13 
REMARK   12  A    between atoms: C8_12  and  C11_15 
REMARK   13  A    between atoms: C9_13  and  C11_15 
REMARK   14  A    between atoms: C9_13  and  C10_14 
REMARK   15  A    between atoms: C10_14  and  C11_15 
ROOT
HETATM    1  O1  UNL     1     -35.898  12.776  50.224  1.00  0.00     0.000 OA
HETATM    2  N1  UNL     1     -36.984  12.001  49.717  1.00  0.00     0.000 N 
HETATM    3  C1  UNL     1     -36.480  11.353  49.628  1.00  0.00     0.000 A 
HETATM    4  C3  UNL     1     -37.196  13.359  50.105  1.00  0.00     0.035 A 
HETATM    5  C4  UNL     1     -36.693  12.712  50.016  1.00  0.00     0.006 A 
HETATM    6  C6  UNL     1     -36.773  10.641  49.329  1.00  0.00     0.000 A 
HETATM    7  C7  UNL     1     -35.685  11.417  49.836  1.00  0.00     0.000 A 
HETATM    8  C10 UNL     1     -36.905  14.071  50.404  1.00  0.00     0.035 A 
HETATM    9  C11 UNL     1     -37.992  13.295  49.897  1.00  0.00     0.035 A 
ENDROOT
BRANCH   4  10
HETATM   10  C2  UNL     1     -38.204  14.653  50.285  1.00  0.00     0.158 A 
HETATM   11  C5  UNL     1     -38.707  15.301  50.375  1.00  0.00     0.241 A 
HETATM   12  N2  UNL     1     -39.524  15.188  50.390  1.00  0.00     0.068 N 
HETATM   13  N3  UNL     1     -40.028  15.836  50.480  1.00  0.00    -0.051 NA
HETATM   14  C8  UNL     1     -38.516  13.894  50.210  1.00  0.00     0.067 A 
HETATM   15  C9  UNL     1     -37.386  14.765  50.270  1.00  0.00     0.067 A 
HETATM   16  C12 UNL     1     -40.845  15.723  50.495  1.00  0.00     0.341 A 
ENDBRANCH   4  10
TORSDOF 15
ENDMDL
