MODEL 1
REMARK VINA RESULT:      87.1      0.000      0.000
REMARK  7 active torsions:
REMARK  status: ('A' for Active; 'I' for Inactive)
REMARK    1  A    between atoms: N1_1  and  C9_13 
REMARK    2  A    between atoms: N3_3  and  N4_4 
REMARK    3  A    between atoms: C1_5  and  C9_13 
REMARK    4  A    between atoms: C2_6  and  C8_12 
REMARK    5  A    between atoms: C4_8  and  C7_11 
REMARK    6  A    between atoms: C5_9  and  C6_10 
REMARK    7  A    between atoms: C6_10  and  C7_11 
ROOT
HETATM    1  N1  UNL     1     -39.333  15.489  50.008  1.00  0.00     0.000 N 
HETATM    2  N2  UNL     1     -37.215  15.732  50.475  1.00  0.00     0.000 N 
HETATM    3  N3  UNL     1     -35.790  15.838  50.517  1.00  0.00    -0.112 NA
HETATM    4  N4  UNL     1     -36.448  15.533  49.285  1.00  0.00    -0.112 NA
HETATM    5  C1  UNL     1     -39.190  15.330  49.211  1.00  0.00     0.003 A 
HETATM    6  C2  UNL     1     -40.007  15.543  50.481  1.00  0.00     0.000 A 
HETATM    7  C3  UNL     1     -39.661  15.160  48.557  1.00  0.00     0.000 A 
HETATM    8  C4  UNL     1     -40.818  15.461  50.352  1.00  0.00     0.000 A 
HETATM    9  C5  UNL     1     -40.472  15.077  48.428  1.00  0.00     0.000 A 
HETATM   10  C6  UNL     1     -41.290  15.290  49.696  1.00  0.00     0.000 A 
HETATM   11  C7  UNL     1     -41.147  15.131  48.899  1.00  0.00     0.000 A 
HETATM   12  C8  UNL     1     -38.639  15.626  50.433  1.00  0.00     0.003 A 
HETATM   13  C9  UNL     1     -37.908  15.595  50.051  1.00  0.00     0.036 A 
HETATM   14  C10 UNL     1     -36.484  15.701  50.092  1.00  0.00     0.182 A 
ENDROOT
TORSDOF 7
ENDMDL
