MODEL 1
REMARK VINA RESULT:     300.4      0.000      0.000
REMARK  18 active torsions:
REMARK  status: ('A' for Active; 'I' for Inactive)
REMARK    1  A    between atoms: CL1_1  and  C12_17 
REMARK    2  A    between atoms: O1_2  and  C2_7 
REMARK    3  A    between atoms: N1_4  and  C5_10 
REMARK    4  A    between atoms: N1_4  and  C6_11 
REMARK    5  A    between atoms: N2_5  and  C8_13 
REMARK    6  A    between atoms: C1_6  and  C5_10 
REMARK    7  A    between atoms: C2_7  and  C5_10 
REMARK    8  A    between atoms: C2_7  and  C3_8 
REMARK    9  A    between atoms: C2_7  and  C4_9 
REMARK   10  A    between atoms: C2_7  and  C6_11 
REMARK   11  A    between atoms: C8_13  and  C13_18 
REMARK   12  A    between atoms: C9_14  and  C10_15 
REMARK   13  A    between atoms: C9_14  and  C12_17 
REMARK   14  A    between atoms: C9_14  and  C13_18 
REMARK   15  A    between atoms: C10_15  and  C11_16 
REMARK   16  A    between atoms: C10_15  and  C13_18 
REMARK   17  A    between atoms: C11_16  and  C12_17 
REMARK   18  A    between atoms: C12_17  and  C13_18 
ROOT
HETATM    1 CL1  UNL     1     -41.054  15.814  50.505  1.00  0.00    -0.251 Cl
HETATM    2  O1  UNL     1     -35.946  10.740  48.190  1.00  0.00     0.000 OA
HETATM    3  O2  UNL     1     -39.658  12.840  48.634  1.00  0.00     0.000 OA
HETATM    4  N1  UNL     1     -36.825  11.966  48.864  1.00  0.00     0.000 N 
HETATM    5  N2  UNL     1     -38.500  13.277  49.348  1.00  0.00     0.000 N 
HETATM    6  C1  UNL     1     -36.026  11.878  49.053  1.00  0.00     0.000 A 
HETATM    7  C2  UNL     1     -37.183  11.441  48.339  1.00  0.00     0.000 A 
HETATM    8  C3  UNL     1     -37.263  12.577  49.200  1.00  0.00     0.000 A 
HETATM    9  C4  UNL     1     -35.587  11.266  48.716  1.00  0.00     0.000 A 
HETATM   10  C5  UNL     1     -36.745  10.828  48.002  1.00  0.00     0.000 A 
HETATM   11  C6  UNL     1     -38.061  12.665  49.011  1.00  0.00     0.000 A 
HETATM   12  C7  UNL     1     -39.298  13.364  49.159  1.00  0.00     0.009 A 
HETATM   13  C8  UNL     1     -39.737  13.977  49.496  1.00  0.00     0.033 A 
HETATM   14  C9  UNL     1     -39.378  14.502  50.021  1.00  0.00     0.033 A 
HETATM   15  C10 UNL     1     -40.536  14.064  49.307  1.00  0.00     0.033 A 
HETATM   16  C11 UNL     1     -39.817  15.114  50.357  1.00  0.00     0.048 A 
HETATM   17  C12 UNL     1     -40.974  14.676  49.643  1.00  0.00     0.048 A 
HETATM   18  C13 UNL     1     -40.615  15.202  50.169  1.00  0.00     0.048 A 
ENDROOT
TORSDOF 18
ENDMDL
