MODEL 1
REMARK VINA RESULT:     265.1      0.000      0.000
REMARK  26 active torsions:
REMARK  status: ('A' for Active; 'I' for Inactive)
REMARK    1  A    between atoms: O1_1  and  C6_8 
REMARK    2  A    between atoms: O1_1  and  C11_13 
REMARK    3  A    between atoms: C1_3  and  C11_13 
REMARK    4  A    between atoms: C2_4  and  C3_5 
REMARK    5  A    between atoms: C2_4  and  C9_11 
REMARK    6  A    between atoms: C2_4  and  C13_15 
REMARK    7  A    between atoms: C3_5  and  C4_6 
REMARK    8  A    between atoms: C3_5  and  C7_9 
REMARK    9  A    between atoms: C3_5  and  C18_20 
REMARK   10  A    between atoms: C4_6  and  C8_10 
REMARK   11  A    between atoms: C4_6  and  C17_19 
REMARK   12  A    between atoms: C5_7  and  C7_9 
REMARK   13  A    between atoms: C5_7  and  C12_14 
REMARK   14  A    between atoms: C7_9  and  C9_11 
REMARK   15  A    between atoms: C7_9  and  C10_12 
REMARK   16  A    between atoms: C7_9  and  C13_15 
REMARK   17  A    between atoms: C8_10  and  C9_11 
REMARK   18  A    between atoms: C8_10  and  C15_17 
REMARK   19  A    between atoms: C9_11  and  C14_16 
REMARK   20  A    between atoms: C9_11  and  C18_20 
REMARK   21  A    between atoms: C10_12  and  C11_13 
REMARK   22  A    between atoms: C10_12  and  C12_14 
REMARK   23  A    between atoms: C12_14  and  C13_15 
REMARK   24  A    between atoms: C14_16  and  C15_17 
REMARK   25  A    between atoms: C15_17  and  C18_20 
REMARK   26  A    between atoms: C16_18  and  C17_19 
ROOT
HETATM    1  O1  UNL     1     -38.661  14.755  50.184  1.00  0.00     0.000 OA
HETATM    2  N1  UNL     1     -40.791  15.162  49.929  1.00  0.00    -0.005 N 
HETATM    3  C1  UNL     1     -38.157  14.109  50.273  1.00  0.00     0.023 A 
HETATM    4  C2  UNL     1     -37.345  14.228  50.356  1.00  0.00     0.003 A 
HETATM    5  C3  UNL     1     -38.463  13.343  50.279  1.00  0.00     0.022 A 
HETATM    6  C4  UNL     1     -39.473  14.636  50.101  1.00  0.00     0.173 A 
HETATM    7  C5  UNL     1     -37.037  14.993  50.350  1.00  0.00     0.002 A 
HETATM    8  C6  UNL     1     -39.979  15.281  50.012  1.00  0.00     0.244 A 
HETATM    9  C7  UNL     1     -36.839  13.581  50.445  1.00  0.00     0.003 A 
HETATM   10  C8  UNL     1     -39.276  13.223  50.196  1.00  0.00     0.024 A 
HETATM   11  C9  UNL     1     -37.959  12.697  50.368  1.00  0.00     0.005 A 
HETATM   12  C10 UNL     1     -36.225  15.113  50.433  1.00  0.00     0.000 A 
HETATM   13  C11 UNL     1     -37.542  15.639  50.261  1.00  0.00     0.002 A 
HETATM   14  C12 UNL     1     -36.027  13.701  50.528  1.00  0.00     0.000 A 
HETATM   15  C13 UNL     1     -35.721  14.467  50.522  1.00  0.00     0.000 A 
HETATM   16  C14 UNL     1     -39.583  12.458  50.202  1.00  0.00     0.003 A 
HETATM   17  C15 UNL     1     -38.266  11.931  50.374  1.00  0.00     0.003 A 
HETATM   18  C16 UNL     1     -41.295  15.809  49.840  1.00  0.00     0.249 A 
HETATM   19  C17 UNL     1     -41.097  14.397  49.935  1.00  0.00     0.244 A 
HETATM   20  C18 UNL     1     -39.078  11.811  50.291  1.00  0.00     0.003 A 
ENDROOT
TORSDOF 26
ENDMDL
MODEL 2
REMARK VINA RESULT:     266.3      1.027      2.453
REMARK  26 active torsions:
REMARK  status: ('A' for Active; 'I' for Inactive)
REMARK    1  A    between atoms: O1_1  and  C6_8 
REMARK    2  A    between atoms: O1_1  and  C11_13 
REMARK    3  A    between atoms: C1_3  and  C11_13 
REMARK    4  A    between atoms: C2_4  and  C3_5 
REMARK    5  A    between atoms: C2_4  and  C9_11 
REMARK    6  A    between atoms: C2_4  and  C13_15 
REMARK    7  A    between atoms: C3_5  and  C4_6 
REMARK    8  A    between atoms: C3_5  and  C7_9 
REMARK    9  A    between atoms: C3_5  and  C18_20 
REMARK   10  A    between atoms: C4_6  and  C8_10 
REMARK   11  A    between atoms: C4_6  and  C17_19 
REMARK   12  A    between atoms: C5_7  and  C7_9 
REMARK   13  A    between atoms: C5_7  and  C12_14 
REMARK   14  A    between atoms: C7_9  and  C9_11 
REMARK   15  A    between atoms: C7_9  and  C10_12 
REMARK   16  A    between atoms: C7_9  and  C13_15 
REMARK   17  A    between atoms: C8_10  and  C9_11 
REMARK   18  A    between atoms: C8_10  and  C15_17 
REMARK   19  A    between atoms: C9_11  and  C14_16 
REMARK   20  A    between atoms: C9_11  and  C18_20 
REMARK   21  A    between atoms: C10_12  and  C11_13 
REMARK   22  A    between atoms: C10_12  and  C12_14 
REMARK   23  A    between atoms: C12_14  and  C13_15 
REMARK   24  A    between atoms: C14_16  and  C15_17 
REMARK   25  A    between atoms: C15_17  and  C18_20 
REMARK   26  A    between atoms: C16_18  and  C17_19 
ROOT
HETATM    1  O1  UNL     1     -38.394  12.989  50.396  1.00  0.00     0.000 OA
HETATM    2  N1  UNL     1     -40.494  13.580  50.313  1.00  0.00    -0.005 N 
HETATM    3  C1  UNL     1     -37.649  13.341  50.439  1.00  0.00     0.023 A 
HETATM    4  C2  UNL     1     -36.972  12.870  50.459  1.00  0.00     0.003 A 
HETATM    5  C3  UNL     1     -37.580  14.163  50.461  1.00  0.00     0.022 A 
HETATM    6  C4  UNL     1     -39.071  13.460  50.376  1.00  0.00     0.173 A 
HETATM    7  C5  UNL     1     -37.039  12.048  50.437  1.00  0.00     0.002 A 
HETATM    8  C6  UNL     1     -39.817  13.110  50.333  1.00  0.00     0.244 A 
HETATM    9  C7  UNL     1     -36.226  13.221  50.502  1.00  0.00     0.003 A 
HETATM   10  C8  UNL     1     -38.258  14.633  50.440  1.00  0.00     0.024 A 
HETATM   11  C9  UNL     1     -36.836  14.514  50.503  1.00  0.00     0.005 A 
HETATM   12  C10 UNL     1     -36.362  11.577  50.457  1.00  0.00     0.000 A 
HETATM   13  C11 UNL     1     -37.785  11.697  50.395  1.00  0.00     0.002 A 
HETATM   14  C12 UNL     1     -35.549  12.751  50.522  1.00  0.00     0.000 A 
HETATM   15  C13 UNL     1     -35.617  11.928  50.500  1.00  0.00     0.000 A 
HETATM   16  C14 UNL     1     -38.190  15.455  50.462  1.00  0.00     0.003 A 
HETATM   17  C15 UNL     1     -36.767  15.336  50.525  1.00  0.00     0.003 A 
HETATM   18  C16 UNL     1     -41.239  13.228  50.271  1.00  0.00     0.249 A 
HETATM   19  C17 UNL     1     -40.426  14.401  50.335  1.00  0.00     0.244 A 
HETATM   20  C18 UNL     1     -37.444  15.806  50.505  1.00  0.00     0.003 A 
ENDROOT
TORSDOF 26
ENDMDL
