MODEL 1
REMARK VINA RESULT:     315.5      0.000      0.000
REMARK WARNING: 32 MAX_TORS EXCEEDED!!!
REMARK  35 active torsions:
REMARK  status: ('A' for Active; 'I' for Inactive)
REMARK    1  A    between atoms: F1_1  and  C16_20 
REMARK    2  A    between atoms: O1_2  and  C4_8 
REMARK    3  A    between atoms: O1_2  and  C12_16 
REMARK    4  A    between atoms: C2_6  and  C6_10 
REMARK    5  A    between atoms: C2_6  and  C8_12 
REMARK    6  A    between atoms: C2_6  and  C9_13 
REMARK    7  A    between atoms: C2_6  and  C11_15 
REMARK    8  A    between atoms: C3_7  and  C5_9 
REMARK    9  A    between atoms: C3_7  and  C6_10 
REMARK   10  A    between atoms: C3_7  and  C7_11 
REMARK   11  A    between atoms: C3_7  and  C14_18 
REMARK   12  A    between atoms: C4_8  and  C7_11 
REMARK   13  A    between atoms: C4_8  and  C9_13 
REMARK   14  A    between atoms: C4_8  and  C13_17 
REMARK   15  A    between atoms: C5_9  and  C9_13 
REMARK   16  A    between atoms: C5_9  and  C13_17 
REMARK   17  A    between atoms: C5_9  and  C19_23 
REMARK   18  A    between atoms: C6_10  and  C17_21 
REMARK   19  A    between atoms: C7_11  and  C10_14 
REMARK   20  A    between atoms: C8_12  and  C9_13 
REMARK   21  A    between atoms: C9_13  and  C10_14 
REMARK   22  A    between atoms: C9_13  and  C14_18 
REMARK   23  A    between atoms: C9_13  and  C19_23 
REMARK   24  A    between atoms: C10_14  and  C13_17 
REMARK   25  A    between atoms: C11_15  and  C12_16 
REMARK   26  A    between atoms: C11_15  and  C16_20 
REMARK   27  A    between atoms: C11_15  and  C17_21 
REMARK   28  A    between atoms: C12_16  and  C15_19 
REMARK   29  A    between atoms: C12_16  and  C17_21 
REMARK   30  A    between atoms: C13_17  and  C14_18 
REMARK   31  A    between atoms: C13_17  and  C19_23 
REMARK   32  A    between atoms: C13_17  and  C20_24 
REMARK   33  A    between atoms: C15_19  and  C16_20 
REMARK   34  A    between atoms: C16_20  and  C17_21 
REMARK   35  A    between atoms: C18_22  and  C19_23 
ROOT
HETATM    1  F1  UNL     1     -41.292  15.838  50.426  1.00  0.00    -0.479 F 
HETATM    2  O1  UNL     1     -38.131  14.585  50.449  1.00  0.00     0.000 OA
HETATM    3  N1  UNL     1     -39.752  11.299  50.490  1.00  0.00    -0.015 N 
HETATM    4  N2  UNL     1     -35.650  11.071  50.501  1.00  0.00    -0.183 N 
HETATM    5  C1  UNL     1     -38.608  13.918  50.457  1.00  0.00     0.042 A 
HETATM    6  C2  UNL     1     -39.272  13.428  50.462  1.00  0.00     0.061 A 
HETATM    7  C3  UNL     1     -38.122  13.257  50.467  1.00  0.00     0.037 A 
HETATM    8  C4  UNL     1     -37.340  13.519  50.465  1.00  0.00     0.017 A 
HETATM    9  C5  UNL     1     -39.180  12.608  50.474  1.00  0.00     0.140 A 
HETATM   10  C6  UNL     1     -39.279  14.398  50.449  1.00  0.00     0.063 A 
HETATM   11  C7  UNL     1     -37.349  14.340  50.454  1.00  0.00     0.007 A 
HETATM   12  C8  UNL     1     -39.844  12.119  50.479  1.00  0.00     0.192 A 
HETATM   13  C9  UNL     1     -38.286  12.448  50.477  1.00  0.00     0.067 A 
HETATM   14  C10 UNL     1     -36.721  12.972  50.473  1.00  0.00     0.029 A 
HETATM   15  C11 UNL     1     -40.031  14.056  50.452  1.00  0.00     0.067 A 
HETATM   16  C12 UNL     1     -39.199  15.219  50.438  1.00  0.00     0.069 A 
HETATM   17  C13 UNL     1     -37.669  11.902  50.486  1.00  0.00     0.063 A 
HETATM   18  C14 UNL     1     -36.886  12.164  50.484  1.00  0.00     0.030 A 
HETATM   19  C15 UNL     1     -40.701  14.536  50.445  1.00  0.00     0.085 A 
HETATM   20  C16 UNL     1     -39.870  15.698  50.431  1.00  0.00     0.085 A 
HETATM   21  C17 UNL     1     -40.622  15.357  50.434  1.00  0.00     0.085 A 
HETATM   22  C18 UNL     1     -40.415  10.809  50.495  1.00  0.00     0.241 A 
HETATM   23  C19 UNL     1     -38.996  10.969  50.496  1.00  0.00     0.193 A 
HETATM   24  C20 UNL     1     -36.268  11.618  50.492  1.00  0.00     0.108 A 
ENDROOT
TORSDOF 35
ENDMDL
