MODEL 1
REMARK VINA RESULT:     226.3      0.000      0.000
REMARK  29 active torsions:
REMARK  status: ('A' for Active; 'I' for Inactive)
REMARK    1  A    between atoms: N1_1  and  C5_7 
REMARK    2  A    between atoms: N2_2  and  C2_4 
REMARK    3  A    between atoms: C1_3  and  C5_7 
REMARK    4  A    between atoms: C1_3  and  C7_9 
REMARK    5  A    between atoms: C1_3  and  C12_14 
REMARK    6  A    between atoms: C2_4  and  C5_7 
REMARK    7  A    between atoms: C2_4  and  C3_5 
REMARK    8  A    between atoms: C2_4  and  C4_6 
REMARK    9  A    between atoms: C2_4  and  C6_8 
REMARK   10  A    between atoms: C2_4  and  C9_11 
REMARK   11  A    between atoms: C5_7  and  C8_10 
REMARK   12  A    between atoms: C6_8  and  C7_9 
REMARK   13  A    between atoms: C6_8  and  C10_12 
REMARK   14  A    between atoms: C6_8  and  C17_19 
REMARK   15  A    between atoms: C7_9  and  C11_13 
REMARK   16  A    between atoms: C7_9  and  C18_20 
REMARK   17  A    between atoms: C9_11  and  C11_13 
REMARK   18  A    between atoms: C9_11  and  C15_17 
REMARK   19  A    between atoms: C10_12  and  C11_13 
REMARK   20  A    between atoms: C10_12  and  C12_14 
REMARK   21  A    between atoms: C10_12  and  C16_18 
REMARK   22  A    between atoms: C11_13  and  C13_15 
REMARK   23  A    between atoms: C11_13  and  C17_19 
REMARK   24  A    between atoms: C12_14  and  C14_16 
REMARK   25  A    between atoms: C12_14  and  C18_20 
REMARK   26  A    between atoms: C13_15  and  C15_17 
REMARK   27  A    between atoms: C14_16  and  C16_18 
REMARK   28  A    between atoms: C15_17  and  C17_19 
REMARK   29  A    between atoms: C16_18  and  C18_20 
ROOT
HETATM    1  N1  UNL     1     -37.831  14.588  50.502  1.00  0.00     0.000 N 
HETATM    2  N2  UNL     1     -36.407  15.421  50.511  1.00  0.00     0.000 N 
HETATM    3  C1  UNL     1     -37.115  14.180  50.515  1.00  0.00     0.000 A 
HETATM    4  C2  UNL     1     -37.837  15.413  50.494  1.00  0.00     0.000 A 
HETATM    5  C3  UNL     1     -38.543  14.171  50.498  1.00  0.00     0.000 A 
HETATM    6  C4  UNL     1     -36.402  14.597  50.519  1.00  0.00     0.000 A 
HETATM    7  C5  UNL     1     -37.124  15.830  50.498  1.00  0.00     0.000 A 
HETATM    8  C6  UNL     1     -39.261  14.579  50.486  1.00  0.00     0.000 A 
HETATM    9  C7  UNL     1     -38.539  13.346  50.506  1.00  0.00     0.000 A 
HETATM   10  C8  UNL     1     -35.695  15.838  50.515  1.00  0.00     0.000 A 
HETATM   11  C9  UNL     1     -39.265  15.404  50.478  1.00  0.00     0.000 A 
HETATM   12  C10 UNL     1     -39.250  12.930  50.502  1.00  0.00     0.000 A 
HETATM   13  C11 UNL     1     -39.972  14.163  50.482  1.00  0.00     0.000 A 
HETATM   14  C12 UNL     1     -37.822  12.939  50.519  1.00  0.00     0.000 A 
HETATM   15  C13 UNL     1     -39.982  15.813  50.466  1.00  0.00     0.000 A 
HETATM   16  C14 UNL     1     -39.246  12.105  50.510  1.00  0.00     0.000 A 
HETATM   17  C15 UNL     1     -40.689  14.571  50.470  1.00  0.00     0.000 A 
HETATM   18  C16 UNL     1     -37.817  12.113  50.527  1.00  0.00     0.000 A 
HETATM   19  C17 UNL     1     -40.694  15.396  50.461  1.00  0.00     0.000 A 
HETATM   20  C18 UNL     1     -38.529  11.697  50.523  1.00  0.00     0.000 A 
ENDROOT
TORSDOF 29
ENDMDL
