MODEL 1
REMARK VINA RESULT:     424.9      0.000      0.000
REMARK WARNING: 32 MAX_TORS EXCEEDED!!!
REMARK  47 active torsions:
REMARK  status: ('A' for Active; 'I' for Inactive)
REMARK    1  A    between atoms: O1_1  and  C2_10 
REMARK    2  A    between atoms: O3_3  and  C14_22 
REMARK    3  A    between atoms: O3_3  and  C21_29 
REMARK    4  A    between atoms: O4_4  and  O5_5 
REMARK    5  A    between atoms: O6_6  and  C18_26 
REMARK    6  A    between atoms: O7_7  and  C18_26 
REMARK    7  A    between atoms: O7_7  and  C22_30 
REMARK    8  A    between atoms: O8_8  and  C17_25 
REMARK    9  A    between atoms: O8_8  and  C20_28 
REMARK   10  A    between atoms: C1_9  and  C5_13 
REMARK   11  A    between atoms: C1_9  and  C7_15 
REMARK   12  A    between atoms: C1_9  and  C8_16 
REMARK   13  A    between atoms: C2_10  and  C6_14 
REMARK   14  A    between atoms: C2_10  and  C7_15 
REMARK   15  A    between atoms: C2_10  and  C14_22 
REMARK   16  A    between atoms: C3_11  and  C4_12 
REMARK   17  A    between atoms: C3_11  and  C7_15 
REMARK   18  A    between atoms: C3_11  and  C8_16 
REMARK   19  A    between atoms: C4_12  and  C5_13 
REMARK   20  A    between atoms: C4_12  and  C6_14 
REMARK   21  A    between atoms: C5_13  and  C7_15 
REMARK   22  A    between atoms: C5_13  and  C9_17 
REMARK   23  A    between atoms: C5_13  and  C11_19 
REMARK   24  A    between atoms: C5_13  and  C12_20 
REMARK   25  A    between atoms: C5_13  and  C15_23 
REMARK   26  A    between atoms: C7_15  and  C10_18 
REMARK   27  A    between atoms: C7_15  and  C13_21 
REMARK   28  A    between atoms: C8_16  and  C14_22 
REMARK   29  A    between atoms: C9_17  and  C10_18 
REMARK   30  A    between atoms: C9_17  and  C16_24 
REMARK   31  A    between atoms: C9_17  and  C17_25 
REMARK   32  A    between atoms: C9_17  and  C18_26 
REMARK   33  A    between atoms: C10_18  and  C12_20 
REMARK   34  A    between atoms: C10_18  and  C13_21 
REMARK   35  A    between atoms: C10_18  and  C15_23 
REMARK   36  A    between atoms: C11_19  and  C13_21 
REMARK   37  A    between atoms: C11_19  and  C12_20 
REMARK   38  A    between atoms: C14_22  and  C15_23 
REMARK   39  A    between atoms: C14_22  and  C16_24 
REMARK   40  A    between atoms: C14_22  and  C18_26 
REMARK   41  A    between atoms: C14_22  and  C21_29 
REMARK   42  A    between atoms: C15_23  and  C17_25 
REMARK   43  A    between atoms: C15_23  and  C18_26 
REMARK   44  A    between atoms: C16_24  and  C17_25 
REMARK   45  A    between atoms: C17_25  and  C18_26 
REMARK   46  A    between atoms: C17_25  and  C22_30 
REMARK   47  A    between atoms: C18_26  and  C20_28 
ROOT
HETATM    1  O1  UNL     1     -36.157  12.893  50.376  1.00  0.00     0.000 OA
HETATM    2  O2  UNL     1     -36.796  10.410  50.134  1.00  0.00     0.000 OA
HETATM    3  O3  UNL     1     -37.185  13.936  50.424  1.00  0.00     0.000 OA
HETATM    4  O6  UNL     1     -40.845  13.594  50.244  1.00  0.00     0.000 OA
HETATM    5  O7  UNL     1     -38.528  15.250  50.483  1.00  0.00     0.000 OA
HETATM    6  O8  UNL     1     -40.168  15.091  50.402  1.00  0.00     0.000 OA
HETATM    7  C1  UNL     1     -36.940  11.827  50.251  1.00  0.00     0.000 A 
HETATM    8  C2  UNL     1     -37.421  12.496  50.289  1.00  0.00     0.000 A 
HETATM    9  C3  UNL     1     -38.241  12.416  50.249  1.00  0.00     0.000 A 
HETATM   10  C4  UNL     1     -37.278  11.079  50.172  1.00  0.00     0.000 A 
HETATM   11  C5  UNL     1     -38.580  11.667  50.170  1.00  0.00     0.000 A 
HETATM   12  C6  UNL     1     -36.160  12.076  50.305  1.00  0.00     0.000 A 
HETATM   13  C7  UNL     1     -38.098  10.999  50.131  1.00  0.00     0.000 A 
HETATM   14  C8  UNL     1     -36.935  13.152  50.366  1.00  0.00     0.000 A 
HETATM   15  C9  UNL     1     -38.723  13.084  50.287  1.00  0.00     0.000 A 
HETATM   16  C10 UNL     1     -39.435  11.597  50.128  1.00  0.00     0.000 A 
HETATM   17  C11 UNL     1     -38.438  10.214  50.049  1.00  0.00     0.000 A 
HETATM   18  C14 UNL     1     -38.385  13.833  50.366  1.00  0.00     0.000 A 
HETATM   19  C15 UNL     1     -39.544  13.005  50.246  1.00  0.00     0.000 A 
HETATM   20  C16 UNL     1     -40.025  13.674  50.284  1.00  0.00     0.000 A 
HETATM   21  C17 UNL     1     -38.867  14.501  50.404  1.00  0.00     0.000 A 
HETATM   22  C18 UNL     1     -39.687  14.422  50.363  1.00  0.00     0.000 A 
HETATM   23  C20 UNL     1     -41.327  14.262  50.282  1.00  0.00     0.000 A 
HETATM   24  C21 UNL     1     -37.708  15.330  50.524  1.00  0.00     0.000 A 
HETATM   25  C22 UNL     1     -39.831  15.838  50.480  1.00  0.00     0.000 A 
ENDROOT
BRANCH  11  26
HETATM   26  C12 UNL     1     -39.793  10.821  50.046  1.00  0.00     0.000 A 
HETATM   27  O4  UNL     1     -40.430  10.276  50.216  1.00  0.00     0.000 OA
HETATM   28  C19 UNL     1     -40.920  10.216  49.518  1.00  0.00     0.000 A 
HETATM   29  C13 UNL     1     -39.893  11.099  49.238  1.00  0.00     0.000 A 
HETATM   30  O5  UNL     1     -40.589  10.723  48.916  1.00  0.00     0.000 OA
ENDBRANCH  11  26
TORSDOF 47
ENDMDL
