MODEL 1
REMARK VINA RESULT:     116.0      0.000      0.000
REMARK  11 active torsions:
REMARK  status: ('A' for Active; 'I' for Inactive)
REMARK    1  A    between atoms: P1_3  and  C2_9 
REMARK    2  A    between atoms: O1_4  and  C2_9 
REMARK    3  A    between atoms: O2_5  and  C5_12 
REMARK    4  A    between atoms: N1_6  and  N2_7 
REMARK    5  A    between atoms: N1_6  and  C6_13 
REMARK    6  A    between atoms: N2_7  and  C4_11 
REMARK    7  A    between atoms: N2_7  and  C7_14 
REMARK    8  A    between atoms: C1_8  and  C3_10 
REMARK    9  A    between atoms: C1_8  and  C4_11 
REMARK   10  A    between atoms: C1_8  and  C6_13 
REMARK   11  A    between atoms: C2_9  and  C3_10 
ROOT
HETATM    1 CL1  UNL     1     -40.388  15.834  50.342  1.00  0.00    -0.189 Cl
HETATM    2 CL2  UNL     1     -41.237  13.025  47.561  1.00  0.00    -0.187 Cl
HETATM    3  P1  UNL     1     -39.036  14.780  48.055  1.00  0.00    -0.070 P 
HETATM    4  O1  UNL     1     -38.381  14.770  47.554  1.00  0.00     0.000 OA
HETATM    5  O2  UNL     1     -39.392  14.189  47.601  1.00  0.00     0.000 OA
HETATM    6  N1  UNL     1     -39.057  15.297  48.698  1.00  0.00     0.000 N 
HETATM    7  N2  UNL     1     -39.782  14.493  48.261  1.00  0.00     0.000 N 
HETATM    8  C1  UNL     1     -38.421  15.803  48.840  1.00  0.00     0.043 A 
HETATM    9  C2  UNL     1     -37.765  15.793  48.339  1.00  0.00     0.024 A 
HETATM   10  C3  UNL     1     -37.745  15.277  47.697  1.00  0.00     0.024 A 
HETATM   11  C4  UNL     1     -39.712  15.307  49.198  1.00  0.00     0.080 A 
HETATM   12  C5  UNL     1     -40.137  13.903  47.808  1.00  0.00     0.092 A 
HETATM   13  C6  UNL     1     -39.733  15.823  49.841  1.00  0.00     0.086 A 
HETATM   14  C7  UNL     1     -40.882  13.616  48.014  1.00  0.00     0.098 A 
ENDROOT
TORSDOF 11
ENDMDL
MODEL 2
REMARK VINA RESULT:     117.9      2.565      2.972
REMARK  11 active torsions:
REMARK  status: ('A' for Active; 'I' for Inactive)
REMARK    1  A    between atoms: P1_3  and  C2_9 
REMARK    2  A    between atoms: O1_4  and  C2_9 
REMARK    3  A    between atoms: O2_5  and  C5_12 
REMARK    4  A    between atoms: N1_6  and  N2_7 
REMARK    5  A    between atoms: N1_6  and  C6_13 
REMARK    6  A    between atoms: N2_7  and  C4_11 
REMARK    7  A    between atoms: N2_7  and  C7_14 
REMARK    8  A    between atoms: C1_8  and  C3_10 
REMARK    9  A    between atoms: C1_8  and  C4_11 
REMARK   10  A    between atoms: C1_8  and  C6_13 
REMARK   11  A    between atoms: C2_9  and  C3_10 
ROOT
HETATM    1 CL1  UNL     1     -38.261  12.218  50.449  1.00  0.00    -0.189 Cl
HETATM    2 CL2  UNL     1     -41.220  14.972  50.514  1.00  0.00    -0.187 Cl
HETATM    3  P1  UNL     1     -38.364  15.074  50.511  1.00  0.00    -0.070 P 
HETATM    4  O1  UNL     1     -37.977  15.802  50.525  1.00  0.00     0.000 OA
HETATM    5  O2  UNL     1     -39.093  15.460  50.520  1.00  0.00     0.000 OA
HETATM    6  N1  UNL     1     -37.926  14.374  50.495  1.00  0.00     0.000 N 
HETATM    7  N2  UNL     1     -39.064  14.637  50.503  1.00  0.00     0.000 N 
HETATM    8  C1  UNL     1     -37.102  14.404  50.494  1.00  0.00     0.043 A 
HETATM    9  C2  UNL     1     -36.715  15.133  50.508  1.00  0.00     0.024 A 
HETATM   10  C3  UNL     1     -37.153  15.832  50.524  1.00  0.00     0.024 A 
HETATM   11  C4  UNL     1     -38.313  13.646  50.480  1.00  0.00     0.080 A 
HETATM   12  C5  UNL     1     -39.792  15.023  50.512  1.00  0.00     0.092 A 
HETATM   13  C6  UNL     1     -37.875  12.947  50.464  1.00  0.00     0.086 A 
HETATM   14  C7  UNL     1     -40.492  14.585  50.504  1.00  0.00     0.098 A 
ENDROOT
TORSDOF 11
ENDMDL
