MODEL 1
REMARK VINA RESULT:     376.3      0.000      0.000
REMARK WARNING: 32 MAX_TORS EXCEEDED!!!
REMARK  46 active torsions:
REMARK  status: ('A' for Active; 'I' for Inactive)
REMARK    1  A    between atoms: F1_1  and  C6_10 
REMARK    2  A    between atoms: F1_1  and  C15_19 
REMARK    3  A    between atoms: F1_1  and  C17_21 
REMARK    4  A    between atoms: O1_2  and  C12_16 
REMARK    5  A    between atoms: O2_3  and  C6_10 
REMARK    6  A    between atoms: O2_3  and  C15_19 
REMARK    7  A    between atoms: O2_3  and  C17_21 
REMARK    8  A    between atoms: O3_4  and  C19_23 
REMARK    9  A    between atoms: C1_5  and  C4_8 
REMARK   10  A    between atoms: C1_5  and  C8_12 
REMARK   11  A    between atoms: C1_5  and  C10_14 
REMARK   12  A    between atoms: C1_5  and  C16_20 
REMARK   13  A    between atoms: C2_6  and  C4_8 
REMARK   14  A    between atoms: C2_6  and  C8_12 
REMARK   15  A    between atoms: C2_6  and  C10_14 
REMARK   16  A    between atoms: C3_7  and  C4_8 
REMARK   17  A    between atoms: C3_7  and  C6_10 
REMARK   18  A    between atoms: C3_7  and  C7_11 
REMARK   19  A    between atoms: C3_7  and  C8_12 
REMARK   20  A    between atoms: C3_7  and  C9_13 
REMARK   21  A    between atoms: C4_8  and  C6_10 
REMARK   22  A    between atoms: C4_8  and  C11_15 
REMARK   23  A    between atoms: C5_9  and  C6_10 
REMARK   24  A    between atoms: C5_9  and  C9_13 
REMARK   25  A    between atoms: C5_9  and  C12_16 
REMARK   26  A    between atoms: C6_10  and  C8_12 
REMARK   27  A    between atoms: C6_10  and  C12_16 
REMARK   28  A    between atoms: C6_10  and  C16_20 
REMARK   29  A    between atoms: C7_11  and  C8_12 
REMARK   30  A    between atoms: C7_11  and  C14_18 
REMARK   31  A    between atoms: C8_12  and  C12_16 
REMARK   32  A    between atoms: C8_12  and  C17_21 
REMARK   33  A    between atoms: C9_13  and  C10_14 
REMARK   34  A    between atoms: C10_14  and  C16_20 
REMARK   35  A    between atoms: C11_15  and  C13_17 
REMARK   36  A    between atoms: C12_16  and  C16_20 
REMARK   37  A    between atoms: C13_17  and  C14_18 
REMARK   38  A    between atoms: C13_17  and  C15_19 
REMARK   39  A    between atoms: C13_17  and  C17_21 
REMARK   40  A    between atoms: C13_17  and  C20_24 
REMARK   41  A    between atoms: C14_18  and  C19_23 
REMARK   42  A    between atoms: C15_19  and  C17_21 
REMARK   43  A    between atoms: C15_19  and  C20_24 
REMARK   44  A    between atoms: C17_21  and  C18_22 
REMARK   45  A    between atoms: C18_22  and  C19_23 
REMARK   46  A    between atoms: C19_23  and  C20_24 
ROOT
HETATM    1  F1  UNL     1     -38.553  14.421  48.417  1.00  0.00    -0.624 F 
HETATM    2  O2  UNL     1     -38.560  14.355  47.788  1.00  0.00     0.000 OA
HETATM    3  O3  UNL     1     -41.323  15.838  49.804  1.00  0.00     0.000 OA
HETATM    4  C4  UNL     1     -38.251  14.367  49.183  1.00  0.00     0.025 A 
HETATM    5  C7  UNL     1     -39.014  14.732  49.334  1.00  0.00     0.025 A 
HETATM    6  C8  UNL     1     -38.040  14.186  48.406  1.00  0.00     0.025 A 
HETATM    7  C13 UNL     1     -39.239  14.924  50.142  1.00  0.00     0.049 A 
HETATM    8  C15 UNL     1     -39.563  14.908  48.650  1.00  0.00     0.035 A 
HETATM    9  C17 UNL     1     -39.057  14.662  48.514  1.00  0.00     0.042 A 
HETATM   10  C18 UNL     1     -40.358  15.288  48.809  1.00  0.00     0.051 A 
HETATM   11  C19 UNL     1     -40.029  15.304  50.320  1.00  0.00     0.031 A 
HETATM   12  C20 UNL     1     -40.593  15.488  49.650  1.00  0.00     0.033 A 
ENDROOT
BRANCH   1  13
HETATM   13  C6  UNL     1     -37.311  13.835  48.248  1.00  0.00     0.012 A 
HETATM   14  C1  UNL     1     -37.196  13.059  47.991  1.00  0.00     0.035 A 
HETATM   15  C2  UNL     1     -37.847  12.582  47.818  1.00  0.00     0.035 A 
HETATM   16  C5  UNL     1     -36.519  12.618  47.858  1.00  0.00     0.024 A 
HETATM   17  C12 UNL     1     -36.546  13.536  48.165  1.00  0.00     0.036 C 
HETATM   18  C3  UNL     1     -38.612  12.881  47.901  1.00  0.00     0.042 A 
HETATM   19  C9  UNL     1     -37.566  11.850  47.579  1.00  0.00     0.019 A 
HETATM   20  C11 UNL     1     -39.281  12.375  47.718  1.00  0.00     0.034 A 
HETATM   21  C14 UNL     1     -40.079  12.680  47.803  1.00  0.00     0.031 A 
HETATM   22  O1  UNL     1     -35.727  12.395  47.801  1.00  0.00     0.000 OA
HETATM   23  C10 UNL     1     -36.746  11.872  47.604  1.00  0.00     0.015 A 
HETATM   24  C16 UNL     1     -36.056  13.262  48.083  1.00  0.00     0.023 A 
ENDBRANCH   1  13
TORSDOF 46
ENDMDL
