MODEL 1
REMARK VINA RESULT:     274.2      0.000      0.000
REMARK  28 active torsions:
REMARK  status: ('A' for Active; 'I' for Inactive)
REMARK    1  A    between atoms: S1_1  and  C5_8 
REMARK    2  A    between atoms: N1_2  and  C4_7 
REMARK    3  A    between atoms: N2_3  and  C8_11 
REMARK    4  A    between atoms: C1_4  and  C6_9 
REMARK    5  A    between atoms: C1_4  and  C8_11 
REMARK    6  A    between atoms: C2_5  and  C9_12 
REMARK    7  A    between atoms: C3_6  and  C5_8 
REMARK    8  A    between atoms: C3_6  and  C7_10 
REMARK    9  A    between atoms: C3_6  and  C11_14 
REMARK   10  A    between atoms: C3_6  and  C13_16 
REMARK   11  A    between atoms: C4_7  and  C5_8 
REMARK   12  A    between atoms: C5_8  and  C10_13 
REMARK   13  A    between atoms: C5_8  and  C11_14 
REMARK   14  A    between atoms: C5_8  and  C15_18 
REMARK   15  A    between atoms: C6_9  and  C7_10 
REMARK   16  A    between atoms: C6_9  and  C9_12 
REMARK   17  A    between atoms: C6_9  and  C10_13 
REMARK   18  A    between atoms: C6_9  and  C14_17 
REMARK   19  A    between atoms: C7_10  and  C8_11 
REMARK   20  A    between atoms: C7_10  and  C12_15 
REMARK   21  A    between atoms: C8_11  and  C9_12 
REMARK   22  A    between atoms: C8_11  and  C14_17 
REMARK   23  A    between atoms: C8_11  and  C12_15 
REMARK   24  A    between atoms: C9_12  and  C13_16 
REMARK   25  A    between atoms: C9_12  and  C14_17 
REMARK   26  A    between atoms: C12_15  and  C17_20 
REMARK   27  A    between atoms: C13_16  and  C16_19 
REMARK   28  A    between atoms: C16_19  and  C17_20 
ROOT
HETATM    1  S1  UNL     1     -35.985  15.026  50.462  1.00  0.00    -0.206 SA
HETATM    2  N1  UNL     1     -37.777  13.240  50.450  1.00  0.00     0.000 N 
HETATM    3  N2  UNL     1     -41.309  13.222  50.382  1.00  0.00    -0.023 N 
HETATM    4  C1  UNL     1     -38.803  14.285  50.417  1.00  0.00     0.056 A 
HETATM    5  C2  UNL     1     -38.600  13.486  50.431  1.00  0.00     0.057 A 
HETATM    6  C3  UNL     1     -38.197  14.894  50.420  1.00  0.00     0.031 A 
HETATM    7  C4  UNL     1     -37.368  14.668  50.439  1.00  0.00     0.037 A 
HETATM    8  C5  UNL     1     -37.156  13.835  50.454  1.00  0.00     0.032 A 
HETATM    9  C6  UNL     1     -39.190  12.909  50.427  1.00  0.00     0.075 A 
HETATM   10  C7  UNL     1     -39.597  14.508  50.398  1.00  0.00     0.067 A 
HETATM   11  C8  UNL     1     -39.984  13.132  50.409  1.00  0.00     0.155 A 
HETATM   12  C9  UNL     1     -40.188  13.933  50.394  1.00  0.00     0.130 A 
HETATM   13  C10 UNL     1     -37.582  12.438  50.464  1.00  0.00     0.030 A 
HETATM   14  C11 UNL     1     -36.780  15.247  50.443  1.00  0.00     0.041 A 
HETATM   15  C12 UNL     1     -41.018  14.152  50.375  1.00  0.00     0.166 A 
HETATM   16  C13 UNL     1     -39.796  15.344  50.384  1.00  0.00     0.034 A 
HETATM   17  C14 UNL     1     -40.679  12.696  50.401  1.00  0.00     0.204 A 
HETATM   18  C15 UNL     1     -36.790  12.206  50.483  1.00  0.00     0.029 A 
HETATM   19  C16 UNL     1     -41.236  14.983  50.360  1.00  0.00     0.051 A 
HETATM   20  C17 UNL     1     -40.621  15.584  50.364  1.00  0.00     0.035 A 
HETATM   21  C18 UNL     1     -36.596  11.404  50.497  1.00  0.00    -0.051 A 
HETATM   22  C19 UNL     1     -35.396  15.604  50.465  1.00  0.00     0.050 A 
ENDROOT
TORSDOF 28
ENDMDL
