MODEL 1
REMARK VINA RESULT:      15.5      0.000      0.000
REMARK  2 active torsions:
REMARK  status: ('A' for Active; 'I' for Inactive)
REMARK    1  A    between atoms: F4_4  and  O1_7 
REMARK    2  A    between atoms: F4_4  and  C1_8 
ROOT
HETATM    1  F1  UNL     1     -39.672  15.736  48.646  1.00  0.00    -0.255 F 
HETATM    2  F2  UNL     1     -37.804  15.836  49.771  1.00  0.00    -0.193 F 
HETATM    3  F3  UNL     1     -38.439  15.776  48.794  1.00  0.00    -0.237 F 
HETATM    4  F4  UNL     1     -38.783  15.838  50.407  1.00  0.00    -0.236 F 
HETATM    5  F5  UNL     1     -41.328  15.772  50.484  1.00  0.00    -0.189 F 
HETATM    6  F6  UNL     1     -41.031  15.718  49.088  1.00  0.00    -0.189 F 
HETATM    7  O1  UNL     1     -39.969  15.790  50.042  1.00  0.00     0.000 OA
HETATM    8  C1  UNL     1     -39.417  15.777  49.429  1.00  0.00     0.425 A 
HETATM    9  C2  UNL     1     -38.611  15.807  49.601  1.00  0.00     0.465 A 
HETATM   10  C3  UNL     1     -40.776  15.760  49.871  1.00  0.00     0.408 A 
ENDROOT
TORSDOF 2
ENDMDL
