MODEL 1
REMARK VINA RESULT:     356.3      0.000      0.000
REMARK  23 active torsions:
REMARK  status: ('A' for Active; 'I' for Inactive)
REMARK    1  A    between atoms: S1_1  and  C1_12 
REMARK    2  A    between atoms: S1_1  and  C3_14 
REMARK    3  A    between atoms: S2_2  and  C3_14 
REMARK    4  A    between atoms: S2_2  and  C6_17 
REMARK    5  A    between atoms: S3_3  and  C8_19 
REMARK    6  A    between atoms: S3_3  and  C6_17 
REMARK    7  A    between atoms: O2_5  and  C5_16 
REMARK    8  A    between atoms: O4_7  and  C8_19 
REMARK    9  A    between atoms: O5_8  and  C6_17 
REMARK   10  A    between atoms: O5_8  and  C8_19 
REMARK   11  A    between atoms: N1_9  and  C1_12 
REMARK   12  A    between atoms: N1_9  and  C4_15 
REMARK   13  A    between atoms: C1_12  and  C4_15 
REMARK   14  A    between atoms: C2_13  and  C3_14 
REMARK   15  A    between atoms: C2_13  and  C4_15 
REMARK   16  A    between atoms: C2_13  and  C5_16 
REMARK   17  A    between atoms: C2_13  and  C7_18 
REMARK   18  A    between atoms: C2_13  and  C9_20 
REMARK   19  A    between atoms: C3_14  and  C4_15 
REMARK   20  A    between atoms: C3_14  and  C8_19 
REMARK   21  A    between atoms: C4_15  and  C6_17 
REMARK   22  A    between atoms: C5_16  and  C10_21 
REMARK   23  A    between atoms: C6_17  and  C8_19 
ROOT
HETATM    1  S1  UNL     1     -38.768  12.800  50.144  1.00  0.00    -0.198 SA
HETATM    2  S2  UNL     1     -39.857  13.822  50.319  1.00  0.00    -0.162 SA
HETATM    3  S3  UNL     1     -40.503  15.135  50.412  1.00  0.00    -0.086 SA
HETATM    4  O1  UNL     1     -39.513  12.474  50.281  1.00  0.00     0.000 OA
HETATM    5  O2  UNL     1     -38.860  11.981  50.173  1.00  0.00     0.000 OA
HETATM    6  O3  UNL     1     -35.700  10.998  49.631  1.00  0.00     0.000 OA
HETATM    7  O4  UNL     1     -40.986  14.474  50.508  1.00  0.00     0.000 OA
HETATM    8  O5  UNL     1     -40.020  15.797  50.315  1.00  0.00     0.000 OA
HETATM    9  N1  UNL     1     -37.961  12.704  50.002  1.00  0.00     0.000 N 
HETATM   10  N2  UNL     1     -37.318  14.785  49.854  1.00  0.00     0.000 N 
HETATM   11  N3  UNL     1     -41.156  15.628  50.519  1.00  0.00    -0.072 NA
HETATM   12  C1  UNL     1     -37.802  14.124  49.951  1.00  0.00     0.062 A 
HETATM   13  C2  UNL     1     -37.478  13.366  49.906  1.00  0.00     0.048 A 
HETATM   14  C3  UNL     1     -38.610  14.219  50.092  1.00  0.00     0.071 A 
HETATM   15  C4  UNL     1     -39.093  13.558  50.188  1.00  0.00     0.071 A 
HETATM   16  C5  UNL     1     -37.637  11.947  49.958  1.00  0.00     0.030 A 
HETATM   17  C6  UNL     1     -39.079  14.887  50.164  1.00  0.00     0.094 A 
HETATM   18  C7  UNL     1     -36.830  11.851  49.817  1.00  0.00     0.019 A 
HETATM   19  C8  UNL     1     -39.850  14.643  50.304  1.00  0.00     0.100 A 
HETATM   20  C9  UNL     1     -36.511  14.690  49.713  1.00  0.00     0.042 A 
HETATM   21  C10 UNL     1     -36.506  11.094  49.772  1.00  0.00     0.010 A 
HETATM   22  C11 UNL     1     -36.028  15.350  49.617  1.00  0.00    -0.029 A 
HETATM   23  C12 UNL     1     -35.375  10.241  49.586  1.00  0.00     0.001 A 
ENDROOT
TORSDOF 23
ENDMDL
