MODEL 1
REMARK VINA RESULT:     397.4      0.000      0.000
REMARK WARNING: 32 MAX_TORS EXCEEDED!!!
REMARK  192 active torsions:
REMARK  status: ('A' for Active; 'I' for Inactive)
REMARK    1  A    between atoms: O1_1  and  C3_37 
REMARK    2  A    between atoms: O2_2  and  C4_38 
REMARK    3  A    between atoms: O5_5  and  C30_64 
REMARK    4  A    between atoms: O5_5  and  C70_104 
REMARK    5  A    between atoms: O6_6  and  C27_61 
REMARK    6  A    between atoms: O6_6  and  C71_105 
REMARK    7  A    between atoms: O7_7  and  O9_9 
REMARK    8  A    between atoms: O8_8  and  O10_10 
REMARK    9  A    between atoms: O11_11  and  C49_83 
REMARK   10  A    between atoms: O12_12  and  C50_84 
REMARK   11  A    between atoms: O12_12  and  C82_116 
REMARK   12  A    between atoms: O13_13  and  C49_83 
REMARK   13  A    between atoms: O13_13  and  C81_115 
REMARK   14  A    between atoms: O14_14  and  C50_84 
REMARK   15  A    between atoms: O17_17  and  C39_73 
REMARK   16  A    between atoms: O17_17  and  C72_106 
REMARK   17  A    between atoms: O18_18  and  C40_74 
REMARK   18  A    between atoms: O18_18  and  C69_103 
REMARK   19  A    between atoms: O21_21  and  C51_85 
REMARK   20  A    between atoms: O22_22  and  C52_86 
REMARK   21  A    between atoms: O23_23  and  O26_26 
REMARK   22  A    between atoms: O23_23  and  C63_97 
REMARK   23  A    between atoms: O24_24  and  O25_25 
REMARK   24  A    between atoms: O24_24  and  C64_98 
REMARK   25  A    between atoms: O25_25  and  C62_96 
REMARK   26  A    between atoms: O26_26  and  C61_95 
REMARK   27  A    between atoms: O27_27  and  C53_87 
REMARK   28  A    between atoms: O27_27  and  C67_101 
REMARK   29  A    between atoms: O27_27  and  C73_107 
REMARK   30  A    between atoms: O28_28  and  C54_88 
REMARK   31  A    between atoms: O28_28  and  C68_102 
REMARK   32  A    between atoms: O28_28  and  C74_108 
REMARK   33  A    between atoms: O29_29  and  C79_113 
REMARK   34  A    between atoms: O30_30  and  C80_114 
REMARK   35  A    between atoms: O31_31  and  C79_113 
REMARK   36  A    between atoms: O31_31  and  C87_121 
REMARK   37  A    between atoms: O32_32  and  C80_114 
REMARK   38  A    between atoms: O32_32  and  C88_122 
REMARK   39  A    between atoms: O33_33  and  C75_109 
REMARK   40  A    between atoms: O33_33  and  C83_117 
REMARK   41  A    between atoms: O34_34  and  C76_110 
REMARK   42  A    between atoms: O34_34  and  C84_118 
REMARK   43  A    between atoms: C1_35  and  C9_43 
REMARK   44  A    between atoms: C1_35  and  C13_47 
REMARK   45  A    between atoms: C1_35  and  C16_50 
REMARK   46  A    between atoms: C2_36  and  C10_44 
REMARK   47  A    between atoms: C2_36  and  C14_48 
REMARK   48  A    between atoms: C2_36  and  C15_49 
REMARK   49  A    between atoms: C3_37  and  C12_46 
REMARK   50  A    between atoms: C3_37  and  C13_47 
REMARK   51  A    between atoms: C3_37  and  C27_61 
REMARK   52  A    between atoms: C4_38  and  C11_45 
REMARK   53  A    between atoms: C4_38  and  C14_48 
REMARK   54  A    between atoms: C4_38  and  C30_64 
REMARK   55  A    between atoms: C5_39  and  C7_41 
REMARK   56  A    between atoms: C5_39  and  C14_48 
REMARK   57  A    between atoms: C5_39  and  C15_49 
REMARK   58  A    between atoms: C6_40  and  C8_42 
REMARK   59  A    between atoms: C6_40  and  C13_47 
REMARK   60  A    between atoms: C6_40  and  C16_50 
REMARK   61  A    between atoms: C7_41  and  C10_44 
REMARK   62  A    between atoms: C7_41  and  C11_45 
REMARK   63  A    between atoms: C8_42  and  C9_43 
REMARK   64  A    between atoms: C8_42  and  C12_46 
REMARK   65  A    between atoms: C9_43  and  C13_47 
REMARK   66  A    between atoms: C9_43  and  C18_52 
REMARK   67  A    between atoms: C9_43  and  C21_55 
REMARK   68  A    between atoms: C9_43  and  C23_57 
REMARK   69  A    between atoms: C9_43  and  C29_63 
REMARK   70  A    between atoms: C10_44  and  C14_48 
REMARK   71  A    between atoms: C10_44  and  C17_51 
REMARK   72  A    between atoms: C10_44  and  C22_56 
REMARK   73  A    between atoms: C10_44  and  C24_58 
REMARK   74  A    between atoms: C10_44  and  C28_62 
REMARK   75  A    between atoms: C13_47  and  C19_53 
REMARK   76  A    between atoms: C13_47  and  C25_59 
REMARK   77  A    between atoms: C14_48  and  C20_54 
REMARK   78  A    between atoms: C14_48  and  C26_60 
REMARK   79  A    between atoms: C15_49  and  C30_64 
REMARK   80  A    between atoms: C16_50  and  C27_61 
REMARK   81  A    between atoms: C17_51  and  C20_54 
REMARK   82  A    between atoms: C17_51  and  C37_71 
REMARK   83  A    between atoms: C17_51  and  C39_73 
REMARK   84  A    between atoms: C17_51  and  C50_84 
REMARK   85  A    between atoms: C18_52  and  C19_53 
REMARK   86  A    between atoms: C18_52  and  C38_72 
REMARK   87  A    between atoms: C18_52  and  C40_74 
REMARK   88  A    between atoms: C18_52  and  C49_83 
REMARK   89  A    between atoms: C19_53  and  C23_57 
REMARK   90  A    between atoms: C19_53  and  C25_59 
REMARK   91  A    between atoms: C19_53  and  C29_63 
REMARK   92  A    between atoms: C20_54  and  C24_58 
REMARK   93  A    between atoms: C20_54  and  C26_60 
REMARK   94  A    between atoms: C20_54  and  C28_62 
REMARK   95  A    between atoms: C21_55  and  C25_59 
REMARK   96  A    between atoms: C21_55  and  C23_57 
REMARK   97  A    between atoms: C22_56  and  C26_60 
REMARK   98  A    between atoms: C22_56  and  C24_58 
REMARK   99  A    between atoms: C27_61  and  C29_63 
REMARK  100  A    between atoms: C27_61  and  C38_72 
REMARK  101  A    between atoms: C27_61  and  C49_83 
REMARK  102  A    between atoms: C27_61  and  C71_105 
REMARK  103  A    between atoms: C28_62  and  C30_64 
REMARK  104  A    between atoms: C28_62  and  C37_71 
REMARK  105  A    between atoms: C28_62  and  C50_84 
REMARK  106  A    between atoms: C29_63  and  C40_74 
REMARK  107  A    between atoms: C29_63  and  C49_83 
REMARK  108  A    between atoms: C30_64  and  C39_73 
REMARK  109  A    between atoms: C30_64  and  C50_84 
REMARK  110  A    between atoms: C30_64  and  C70_104 
REMARK  111  A    between atoms: C31_65  and  C46_80 
REMARK  112  A    between atoms: C31_65  and  C56_90 
REMARK  113  A    between atoms: C32_66  and  C45_79 
REMARK  114  A    between atoms: C32_66  and  C55_89 
REMARK  115  A    between atoms: C33_67  and  C51_85 
REMARK  116  A    between atoms: C33_67  and  C68_102 
REMARK  117  A    between atoms: C34_68  and  C52_86 
REMARK  118  A    between atoms: C34_68  and  C67_101 
REMARK  119  A    between atoms: C35_69  and  C45_79 
REMARK  120  A    between atoms: C35_69  and  C55_89 
REMARK  121  A    between atoms: C36_70  and  C46_80 
REMARK  122  A    between atoms: C36_70  and  C56_90 
REMARK  123  A    between atoms: C37_71  and  C39_73 
REMARK  124  A    between atoms: C37_71  and  C82_116 
REMARK  125  A    between atoms: C38_72  and  C40_74 
REMARK  126  A    between atoms: C39_73  and  C50_84 
REMARK  127  A    between atoms: C40_74  and  C49_83 
REMARK  128  A    between atoms: C40_74  and  C81_115 
REMARK  129  A    between atoms: C41_75  and  C43_77 
REMARK  130  A    between atoms: C41_75  and  C52_86 
REMARK  131  A    between atoms: C42_76  and  C44_78 
REMARK  132  A    between atoms: C42_76  and  C51_85 
REMARK  133  A    between atoms: C43_77  and  C45_79 
REMARK  134  A    between atoms: C43_77  and  C53_87 
REMARK  135  A    between atoms: C43_77  and  C60_94 
REMARK  136  A    between atoms: C43_77  and  C62_96 
REMARK  137  A    between atoms: C43_77  and  C64_98 
REMARK  138  A    between atoms: C43_77  and  C65_99 
REMARK  139  A    between atoms: C44_78  and  C46_80 
REMARK  140  A    between atoms: C44_78  and  C54_88 
REMARK  141  A    between atoms: C44_78  and  C59_93 
REMARK  142  A    between atoms: C44_78  and  C61_95 
REMARK  143  A    between atoms: C44_78  and  C63_97 
REMARK  144  A    between atoms: C44_78  and  C66_100 
REMARK  145  A    between atoms: C45_79  and  C58_92 
REMARK  146  A    between atoms: C45_79  and  C62_96 
REMARK  147  A    between atoms: C45_79  and  C64_98 
REMARK  148  A    between atoms: C46_80  and  C57_91 
REMARK  149  A    between atoms: C46_80  and  C61_95 
REMARK  150  A    between atoms: C46_80  and  C63_97 
REMARK  151  A    between atoms: C49_83  and  C69_103 
REMARK  152  A    between atoms: C50_84  and  C72_106 
REMARK  153  A    between atoms: C53_87  and  C58_92 
REMARK  154  A    between atoms: C53_87  and  C73_107 
REMARK  155  A    between atoms: C53_87  and  C75_109 
REMARK  156  A    between atoms: C53_87  and  C80_114 
REMARK  157  A    between atoms: C54_88  and  C57_91 
REMARK  158  A    between atoms: C54_88  and  C74_108 
REMARK  159  A    between atoms: C54_88  and  C76_110 
REMARK  160  A    between atoms: C54_88  and  C79_113 
REMARK  161  A    between atoms: C55_89  and  C67_101 
REMARK  162  A    between atoms: C56_90  and  C68_102 
REMARK  163  A    between atoms: C57_91  and  C59_93 
REMARK  164  A    between atoms: C57_91  and  C63_97 
REMARK  165  A    between atoms: C57_91  and  C66_100 
REMARK  166  A    between atoms: C58_92  and  C60_94 
REMARK  167  A    between atoms: C58_92  and  C64_98 
REMARK  168  A    between atoms: C58_92  and  C65_99 
REMARK  169  A    between atoms: C59_93  and  C61_95 
REMARK  170  A    between atoms: C60_94  and  C62_96 
REMARK  171  A    between atoms: C61_95  and  C63_97 
REMARK  172  A    between atoms: C62_96  and  C64_98 
REMARK  173  A    between atoms: C65_99  and  C67_101 
REMARK  174  A    between atoms: C65_99  and  C73_107 
REMARK  175  A    between atoms: C65_99  and  C80_114 
REMARK  176  A    between atoms: C65_99  and  C85_119 
REMARK  177  A    between atoms: C66_100  and  C68_102 
REMARK  178  A    between atoms: C66_100  and  C74_108 
REMARK  179  A    between atoms: C66_100  and  C79_113 
REMARK  180  A    between atoms: C66_100  and  C86_120 
REMARK  181  A    between atoms: C67_101  and  C75_109 
REMARK  182  A    between atoms: C67_101  and  C80_114 
REMARK  183  A    between atoms: C68_102  and  C76_110 
REMARK  184  A    between atoms: C68_102  and  C79_113 
REMARK  185  A    between atoms: C73_107  and  C75_109 
REMARK  186  A    between atoms: C74_108  and  C76_110 
REMARK  187  A    between atoms: C75_109  and  C80_114 
REMARK  188  A    between atoms: C75_109  and  C88_122 
REMARK  189  A    between atoms: C76_110  and  C79_113 
REMARK  190  A    between atoms: C76_110  and  C87_121 
REMARK  191  A    between atoms: C79_113  and  C84_118 
REMARK  192  A    between atoms: C80_114  and  C83_117 
ROOT
HETATM    1  O1  UNL     1     -39.195  10.496  50.525  1.00  0.00     0.000 OA
HETATM    2  O3  UNL     1     -36.624  10.613  50.526  1.00  0.00     0.000 OA
HETATM    3  O6  UNL     1     -40.006  11.716  50.525  1.00  0.00     0.000 OA
HETATM    4  O11 UNL     1     -38.911  15.229  50.526  1.00  0.00     0.000 OA
HETATM    5  O13 UNL     1     -41.020  13.300  50.524  1.00  0.00     0.000 OA
HETATM    6  O18 UNL     1     -40.523  14.873  50.525  1.00  0.00     0.000 OA
HETATM    7  C1  UNL     1     -37.986  11.043  50.525  1.00  0.00     0.000 A 
HETATM    8  C3  UNL     1     -38.543  11.652  50.525  1.00  0.00     0.000 A 
HETATM    9  C6  UNL     1     -38.294  12.439  50.525  1.00  0.00     0.000 A 
HETATM   10  C8  UNL     1     -37.180  11.222  50.526  1.00  0.00     0.000 A 
HETATM   11  C9  UNL     1     -37.489  12.617  50.526  1.00  0.00     0.000 A 
HETATM   12  C12 UNL     1     -38.392  10.331  50.525  1.00  0.00     0.000 A 
HETATM   13  C13 UNL     1     -36.932  12.008  50.526  1.00  0.00     0.000 A 
HETATM   14  C16 UNL     1     -39.288  11.311  50.525  1.00  0.00     0.000 A 
HETATM   15  C18 UNL     1     -38.851  13.047  50.525  1.00  0.00     0.000 A 
HETATM   16  C19 UNL     1     -37.243  13.441  50.526  1.00  0.00     0.000 A 
HETATM   17  C21 UNL     1     -36.090  12.181  50.527  1.00  0.00     0.000 A 
HETATM   18  C27 UNL     1     -39.657  12.869  50.525  1.00  0.00     0.000 A 
HETATM   19  C29 UNL     1     -38.603  13.833  50.525  1.00  0.00     0.000 A 
HETATM   20  C38 UNL     1     -39.160  14.443  50.525  1.00  0.00     0.000 A 
HETATM   21  C40 UNL     1     -40.214  13.477  50.525  1.00  0.00     0.000 A 
HETATM   22  C49 UNL     1     -39.965  14.264  50.525  1.00  0.00     0.000 A 
HETATM   23  C69 UNL     1     -39.468  15.837  50.525  1.00  0.00     0.000 A 
HETATM   24  C71 UNL     1     -41.268  12.513  50.524  1.00  0.00     0.000 A 
HETATM   25  C81 UNL     1     -41.328  14.694  50.524  1.00  0.00     0.000 A 
ENDROOT
BRANCH  11  26
HETATM   26  C23 UNL     1     -36.405  13.632  50.527  1.00  0.00     0.000 A 
HETATM   27  O8  UNL     1     -35.637  14.006  50.527  1.00  0.00     0.000 OA
HETATM   28  C47 UNL     1     -35.753  14.852  50.527  1.00  0.00     0.000 A 
HETATM   29  C25 UNL     1     -37.000  14.252  50.525  1.00  0.00     0.000 A 
HETATM   30  O10 UNL     1     -36.594  15.005  50.525  1.00  0.00     0.000 OA
ENDBRANCH  11  26
TORSDOF 192
ENDMDL
