MODEL 1
REMARK VINA RESULT:     483.5      0.000      0.000
REMARK  32 active torsions:
REMARK  status: ('A' for Active; 'I' for Inactive)
REMARK    1  A    between atoms: CL1_1  and  C16_26 
REMARK    2  A    between atoms: O1_2  and  N1_5 
REMARK    3  A    between atoms: O2_3  and  N4_8 
REMARK    4  A    between atoms: O2_3  and  C8_18 
REMARK    5  A    between atoms: N1_5  and  C4_14 
REMARK    6  A    between atoms: N2_6  and  C2_12 
REMARK    7  A    between atoms: N3_7  and  C10_20 
REMARK    8  A    between atoms: N3_7  and  C9_19 
REMARK    9  A    between atoms: N4_8  and  C9_19 
REMARK   10  A    between atoms: N4_8  and  C14_24 
REMARK   11  A    between atoms: N5_9  and  C10_20 
REMARK   12  A    between atoms: N5_9  and  C13_23 
REMARK   13  A    between atoms: N6_10  and  C12_22 
REMARK   14  A    between atoms: N6_10  and  C17_27 
REMARK   15  A    between atoms: C1_11  and  C4_14 
REMARK   16  A    between atoms: C1_11  and  C6_16 
REMARK   17  A    between atoms: C2_12  and  C4_14 
REMARK   18  A    between atoms: C2_12  and  C3_13 
REMARK   19  A    between atoms: C2_12  and  C6_16 
REMARK   20  A    between atoms: C4_14  and  C7_17 
REMARK   21  A    between atoms: C5_15  and  C9_19 
REMARK   22  A    between atoms: C5_15  and  C10_20 
REMARK   23  A    between atoms: C8_18  and  C10_20 
REMARK   24  A    between atoms: C8_18  and  C14_24 
REMARK   25  A    between atoms: C9_19  and  C13_23 
REMARK   26  A    between atoms: C10_20  and  C11_21 
REMARK   27  A    between atoms: C11_21  and  C17_27 
REMARK   28  A    between atoms: C12_22  and  C16_26 
REMARK   29  A    between atoms: C12_22  and  C17_27 
REMARK   30  A    between atoms: C13_23  and  C14_24 
REMARK   31  A    between atoms: C15_25  and  C16_26 
REMARK   32  A    between atoms: C16_26  and  C17_27 
ROOT
HETATM    1 CL1  UNL     1     -39.065  10.382  47.856  1.00  0.00    -0.247 Cl
HETATM    2  O1  UNL     1     -38.176  13.982  48.736  1.00  0.00     0.000 OA
HETATM    3  O2  UNL     1     -37.746  15.313  49.028  1.00  0.00     0.000 OA
HETATM    4  O3  UNL     1     -35.953  12.559  47.543  1.00  0.00    -0.365 OA
HETATM    5  N1  UNL     1     -39.082  14.910  49.336  1.00  0.00     0.000 N 
HETATM    6  N2  UNL     1     -40.576  15.260  49.940  1.00  0.00     0.000 N 
HETATM    7  N3  UNL     1     -37.192  13.086  48.121  1.00  0.00     0.000 N 
HETATM    8  N4  UNL     1     -36.704  15.111  48.620  1.00  0.00     0.000 N 
HETATM    9  N5  UNL     1     -35.438  14.301  47.940  1.00  0.00     0.000 N 
HETATM   10  N6  UNL     1     -37.346  11.721  47.727  1.00  0.00     0.000 N 
HETATM   11  C1  UNL     1     -39.240  15.663  49.633  1.00  0.00     0.000 A 
HETATM   12  C2  UNL     1     -39.671  14.332  49.341  1.00  0.00     0.000 A 
HETATM   13  C3  UNL     1     -39.988  15.838  49.935  1.00  0.00     0.000 A 
HETATM   14  C4  UNL     1     -40.418  14.507  49.643  1.00  0.00     0.000 A 
HETATM   15  C5  UNL     1     -37.428  13.806  48.433  1.00  0.00     0.049 A 
HETATM   16  C6  UNL     1     -38.335  14.735  49.033  1.00  0.00     0.004 A 
HETATM   17  C7  UNL     1     -41.324  15.436  50.243  1.00  0.00     0.000 A 
HETATM   18  C8  UNL     1     -36.793  14.323  48.393  1.00  0.00     0.048 A 
HETATM   19  C9  UNL     1     -36.159  13.918  48.053  1.00  0.00     0.080 A 
HETATM   20  C10 UNL     1     -36.410  13.155  47.887  1.00  0.00     0.098 A 
HETATM   21  C11 UNL     1     -37.661  12.410  48.055  1.00  0.00     0.056 A 
HETATM   22  C12 UNL     1     -38.443  12.423  48.316  1.00  0.00     0.041 A 
HETATM   23  C13 UNL     1     -35.982  15.494  48.508  1.00  0.00     0.030 A 
HETATM   24  C14 UNL     1     -35.348  15.089  48.168  1.00  0.00     0.030 A 
HETATM   25  C15 UNL     1     -38.911  11.747  48.249  1.00  0.00     0.059 A 
HETATM   26  C16 UNL     1     -37.814  11.045  47.661  1.00  0.00     0.059 A 
HETATM   27  C17 UNL     1     -38.597  11.058  47.922  1.00  0.00     0.059 A 
ENDROOT
TORSDOF 32
ENDMDL
MODEL 2
REMARK VINA RESULT:     486.5      1.961      3.230
REMARK  32 active torsions:
REMARK  status: ('A' for Active; 'I' for Inactive)
REMARK    1  A    between atoms: CL1_1  and  C16_26 
REMARK    2  A    between atoms: O1_2  and  N1_5 
REMARK    3  A    between atoms: O2_3  and  N4_8 
REMARK    4  A    between atoms: O2_3  and  C8_18 
REMARK    5  A    between atoms: N1_5  and  C4_14 
REMARK    6  A    between atoms: N2_6  and  C2_12 
REMARK    7  A    between atoms: N3_7  and  C10_20 
REMARK    8  A    between atoms: N3_7  and  C9_19 
REMARK    9  A    between atoms: N4_8  and  C9_19 
REMARK   10  A    between atoms: N4_8  and  C14_24 
REMARK   11  A    between atoms: N5_9  and  C10_20 
REMARK   12  A    between atoms: N5_9  and  C13_23 
REMARK   13  A    between atoms: N6_10  and  C12_22 
REMARK   14  A    between atoms: N6_10  and  C17_27 
REMARK   15  A    between atoms: C1_11  and  C4_14 
REMARK   16  A    between atoms: C1_11  and  C6_16 
REMARK   17  A    between atoms: C2_12  and  C4_14 
REMARK   18  A    between atoms: C2_12  and  C3_13 
REMARK   19  A    between atoms: C2_12  and  C6_16 
REMARK   20  A    between atoms: C4_14  and  C7_17 
REMARK   21  A    between atoms: C5_15  and  C9_19 
REMARK   22  A    between atoms: C5_15  and  C10_20 
REMARK   23  A    between atoms: C8_18  and  C10_20 
REMARK   24  A    between atoms: C8_18  and  C14_24 
REMARK   25  A    between atoms: C9_19  and  C13_23 
REMARK   26  A    between atoms: C10_20  and  C11_21 
REMARK   27  A    between atoms: C11_21  and  C17_27 
REMARK   28  A    between atoms: C12_22  and  C16_26 
REMARK   29  A    between atoms: C12_22  and  C17_27 
REMARK   30  A    between atoms: C13_23  and  C14_24 
REMARK   31  A    between atoms: C15_25  and  C16_26 
REMARK   32  A    between atoms: C16_26  and  C17_27 
ROOT
HETATM    1 CL1  UNL     1     -35.373  14.810  48.179  1.00  0.00    -0.247 Cl
HETATM    2  O1  UNL     1     -38.582  13.147  49.386  1.00  0.00     0.000 OA
HETATM    3  O2  UNL     1     -39.728  12.438  49.860  1.00  0.00     0.000 OA
HETATM    4  O3  UNL     1     -36.285  11.396  49.607  1.00  0.00    -0.365 OA
HETATM    5  N1  UNL     1     -39.863  13.780  49.390  1.00  0.00     0.000 N 
HETATM    6  N2  UNL     1     -40.807  15.097  49.080  1.00  0.00     0.000 N 
HETATM    7  N3  UNL     1     -37.303  12.434  49.412  1.00  0.00     0.000 N 
HETATM    8  N4  UNL     1     -39.112  11.510  50.088  1.00  0.00     0.000 N 
HETATM    9  N5  UNL     1     -37.804  10.513  50.214  1.00  0.00     0.000 N 
HETATM   10  N6  UNL     1     -36.012  12.893  49.004  1.00  0.00     0.000 N 
HETATM   11  C1  UNL     1     -40.672  13.755  49.550  1.00  0.00     0.000 A 
HETATM   12  C2  UNL     1     -39.526  14.465  49.076  1.00  0.00     0.000 A 
HETATM   13  C3  UNL     1     -41.144  14.414  49.394  1.00  0.00     0.000 A 
HETATM   14  C4  UNL     1     -39.998  15.123  48.920  1.00  0.00     0.000 A 
HETATM   15  C5  UNL     1     -38.110  12.489  49.542  1.00  0.00     0.049 A 
HETATM   16  C6  UNL     1     -39.391  13.122  49.546  1.00  0.00     0.004 A 
HETATM   17  C7  UNL     1     -41.280  15.756  48.924  1.00  0.00     0.000 A 
HETATM   18  C8  UNL     1     -38.367  11.775  49.853  1.00  0.00     0.048 A 
HETATM   19  C9  UNL     1     -37.713  11.276  49.916  1.00  0.00     0.080 A 
HETATM   20  C10 UNL     1     -37.057  11.686  49.643  1.00  0.00     0.098 A 
HETATM   21  C11 UNL     1     -36.820  13.028  49.104  1.00  0.00     0.056 A 
HETATM   22  C12 UNL     1     -37.145  13.757  48.895  1.00  0.00     0.041 A 
HETATM   23  C13 UNL     1     -39.203  10.746  50.387  1.00  0.00     0.030 A 
HETATM   24  C14 UNL     1     -38.549  10.247  50.450  1.00  0.00     0.030 A 
HETATM   25  C15 UNL     1     -36.662  14.351  48.587  1.00  0.00     0.059 A 
HETATM   26  C16 UNL     1     -35.529  13.487  48.696  1.00  0.00     0.059 A 
HETATM   27  C17 UNL     1     -35.855  14.216  48.487  1.00  0.00     0.059 A 
ENDROOT
TORSDOF 32
ENDMDL
