MODEL 1
REMARK VINA RESULT:     327.1      0.000      0.000
REMARK  24 active torsions:
REMARK  status: ('A' for Active; 'I' for Inactive)
REMARK    1  A    between atoms: O3_3  and  C10_15 
REMARK    2  A    between atoms: O4_4  and  C12_17 
REMARK    3  A    between atoms: N1_5  and  C10_15 
REMARK    4  A    between atoms: C1_6  and  C4_9 
REMARK    5  A    between atoms: C1_6  and  C6_11 
REMARK    6  A    between atoms: C2_7  and  C3_8 
REMARK    7  A    between atoms: C2_7  and  C5_10 
REMARK    8  A    between atoms: C3_8  and  C4_9 
REMARK    9  A    between atoms: C3_8  and  C6_11 
REMARK   10  A    between atoms: C3_8  and  C7_12 
REMARK   11  A    between atoms: C4_9  and  C5_10 
REMARK   12  A    between atoms: C5_10  and  C6_11 
REMARK   13  A    between atoms: C5_10  and  C9_14 
REMARK   14  A    between atoms: C5_10  and  C13_18 
REMARK   15  A    between atoms: C6_11  and  C7_12 
REMARK   16  A    between atoms: C7_12  and  C14_19 
REMARK   17  A    between atoms: C9_14  and  C13_18 
REMARK   18  A    between atoms: C10_15  and  C12_17 
REMARK   19  A    between atoms: C11_16  and  C12_17 
REMARK   20  A    between atoms: C11_16  and  C17_22 
REMARK   21  A    between atoms: C12_17  and  C13_18 
REMARK   22  A    between atoms: C13_18  and  C14_19 
REMARK   23  A    between atoms: C15_20  and  C17_22 
REMARK   24  A    between atoms: C16_21  and  C17_22 
ROOT
HETATM    1  O1  UNL     1     -39.799  15.819  48.657  1.00  0.00     0.000 OA
HETATM    2  O2  UNL     1     -41.321  15.837  48.021  1.00  0.00     0.000 OA
HETATM    3  O3  UNL     1     -38.864  12.976  48.556  1.00  0.00     0.000 OA
HETATM    4  C1  UNL     1     -40.142  15.118  48.391  1.00  0.00     0.000 A 
HETATM    5  C2  UNL     1     -40.904  15.126  48.073  1.00  0.00     0.000 A 
HETATM    6  C3  UNL     1     -39.726  14.408  48.443  1.00  0.00     0.000 A 
HETATM    7  C4  UNL     1     -41.248  14.426  47.807  1.00  0.00     0.000 A 
HETATM    8  C5  UNL     1     -40.069  13.708  48.177  1.00  0.00     0.000 A 
HETATM    9  C6  UNL     1     -40.830  13.716  47.859  1.00  0.00     0.000 A 
HETATM   10  C7  UNL     1     -39.624  12.974  48.236  1.00  0.00     0.000 A 
HETATM   11  C9  UNL     1     -41.200  12.992  47.578  1.00  0.00     0.000 A 
HETATM   12  C12 UNL     1     -38.440  12.270  48.611  1.00  0.00     0.000 A 
HETATM   13  C13 UNL     1     -39.977  12.241  47.961  1.00  0.00     0.000 A 
HETATM   14  C14 UNL     1     -40.771  12.250  47.629  1.00  0.00     0.000 A 
ENDROOT
BRANCH   3  15
HETATM   15  C10 UNL     1     -37.679  12.271  48.931  1.00  0.00     0.000 A 
HETATM   16  O4  UNL     1     -37.546  12.072  48.141  1.00  0.00     0.000 OA
HETATM   17  C11 UNL     1     -37.152  12.018  49.513  1.00  0.00     0.000 A 
HETATM   18  N1  UNL     1     -36.493  11.567  49.307  1.00  0.00     0.000 N 
HETATM   19  C8  UNL     1     -35.966  11.314  49.888  1.00  0.00     0.000 A 
HETATM   20  C16 UNL     1     -35.511  10.938  49.312  1.00  0.00     0.000 A 
HETATM   21  C17 UNL     1     -36.423  11.689  50.464  1.00  0.00     0.000 A 
HETATM   22  C15 UNL     1     -35.439  11.060  50.471  1.00  0.00     0.000 A 
ENDBRANCH   3  15
TORSDOF 24
ENDMDL
