MODEL 1
REMARK VINA RESULT:     314.3      0.000      0.000
REMARK  21 active torsions:
REMARK  status: ('A' for Active; 'I' for Inactive)
REMARK    1  A    between atoms: F1_1  and  C11_18 
REMARK    2  A    between atoms: O1_2  and  C4_11 
REMARK    3  A    between atoms: O1_2  and  C9_16 
REMARK    4  A    between atoms: O1_2  and  C10_17 
REMARK    5  A    between atoms: N1_5  and  N3_7 
REMARK    6  A    between atoms: N1_5  and  C5_12 
REMARK    7  A    between atoms: N2_6  and  C4_11 
REMARK    8  A    between atoms: N3_7  and  C12_19 
REMARK    9  A    between atoms: C1_8  and  C12_19 
REMARK   10  A    between atoms: C2_9  and  C5_12 
REMARK   11  A    between atoms: C3_10  and  C6_13 
REMARK   12  A    between atoms: C3_10  and  C7_14 
REMARK   13  A    between atoms: C4_11  and  C6_13 
REMARK   14  A    between atoms: C4_11  and  C8_15 
REMARK   15  A    between atoms: C4_11  and  C13_20 
REMARK   16  A    between atoms: C6_13  and  C9_16 
REMARK   17  A    between atoms: C6_13  and  C10_17 
REMARK   18  A    between atoms: C7_14  and  C8_15 
REMARK   19  A    between atoms: C8_15  and  C13_20 
REMARK   20  A    between atoms: C10_17  and  C11_18 
REMARK   21  A    between atoms: C11_18  and  C13_20 
ROOT
HETATM    1  F1  UNL     1     -41.244  15.770  49.842  1.00  0.00    -0.477 F 
HETATM    2  O1  UNL     1     -41.185  13.096  49.002  1.00  0.00     0.000 OA
HETATM    3  O2  UNL     1     -36.886  11.542  50.330  1.00  0.00     0.000 OA
HETATM    4  O3  UNL     1     -38.086  11.118  49.682  1.00  0.00    -0.361 OA
HETATM    5  N1  UNL     1     -38.808  13.490  50.141  1.00  0.00     0.000 N 
HETATM    6  N2  UNL     1     -40.013  12.383  49.271  1.00  0.00     0.000 N 
HETATM    7  N3  UNL     1     -37.601  13.094  50.527  1.00  0.00     0.000 N 
HETATM    8  C1  UNL     1     -38.717  12.699  49.925  1.00  0.00     0.053 A 
HETATM    9  C2  UNL     1     -39.252  12.206  49.537  1.00  0.00     0.030 A 
HETATM   10  C3  UNL     1     -39.459  13.983  50.024  1.00  0.00     0.052 A 
HETATM   11  C4  UNL     1     -40.178  13.808  49.661  1.00  0.00     0.054 A 
HETATM   12  C5  UNL     1     -37.971  12.458  50.164  1.00  0.00     0.098 A 
HETATM   13  C6  UNL     1     -40.425  13.096  49.326  1.00  0.00     0.032 A 
HETATM   14  C7  UNL     1     -38.118  13.730  50.513  1.00  0.00     0.037 A 
HETATM   15  C8  UNL     1     -39.305  14.766  50.342  1.00  0.00     0.056 A 
HETATM   16  C9  UNL     1     -40.415  11.765  48.899  1.00  0.00     0.005 A 
HETATM   17  C10 UNL     1     -40.794  14.403  49.591  1.00  0.00     0.081 A 
HETATM   18  C11 UNL     1     -39.909  15.374  50.282  1.00  0.00     0.097 A 
HETATM   19  C12 UNL     1     -37.647  11.706  50.059  1.00  0.00     0.119 A 
HETATM   20  C13 UNL     1     -40.659  15.192  49.904  1.00  0.00     0.097 A 
HETATM   21  C14 UNL     1     -36.563  10.791  50.224  1.00  0.00     0.055 A 
HETATM   22  C15 UNL     1     -35.800  10.627  50.496  1.00  0.00    -0.028 A 
ENDROOT
TORSDOF 21
ENDMDL
MODEL 2
REMARK VINA RESULT:     314.7      1.934      3.969
REMARK  21 active torsions:
REMARK  status: ('A' for Active; 'I' for Inactive)
REMARK    1  A    between atoms: F1_1  and  C11_18 
REMARK    2  A    between atoms: O1_2  and  C4_11 
REMARK    3  A    between atoms: O1_2  and  C9_16 
REMARK    4  A    between atoms: O1_2  and  C10_17 
REMARK    5  A    between atoms: N1_5  and  N3_7 
REMARK    6  A    between atoms: N1_5  and  C5_12 
REMARK    7  A    between atoms: N2_6  and  C4_11 
REMARK    8  A    between atoms: N3_7  and  C12_19 
REMARK    9  A    between atoms: C1_8  and  C12_19 
REMARK   10  A    between atoms: C2_9  and  C5_12 
REMARK   11  A    between atoms: C3_10  and  C6_13 
REMARK   12  A    between atoms: C3_10  and  C7_14 
REMARK   13  A    between atoms: C4_11  and  C6_13 
REMARK   14  A    between atoms: C4_11  and  C8_15 
REMARK   15  A    between atoms: C4_11  and  C13_20 
REMARK   16  A    between atoms: C6_13  and  C9_16 
REMARK   17  A    between atoms: C6_13  and  C10_17 
REMARK   18  A    between atoms: C7_14  and  C8_15 
REMARK   19  A    between atoms: C8_15  and  C13_20 
REMARK   20  A    between atoms: C10_17  and  C11_18 
REMARK   21  A    between atoms: C11_18  and  C13_20 
ROOT
HETATM    1  F1  UNL     1     -35.954  10.570  50.318  1.00  0.00    -0.477 F 
HETATM    2  O1  UNL     1     -38.740  10.290  50.447  1.00  0.00     0.000 OA
HETATM    3  O2  UNL     1     -40.371  14.762  50.475  1.00  0.00     0.000 OA
HETATM    4  O3  UNL     1     -40.810  13.403  50.509  1.00  0.00    -0.361 OA
HETATM    5  N1  UNL     1     -38.336  12.923  50.401  1.00  0.00     0.000 N 
HETATM    6  N2  UNL     1     -39.486  11.471  50.469  1.00  0.00     0.000 N 
HETATM    7  N3  UNL     1     -38.752  14.184  50.407  1.00  0.00     0.000 N 
HETATM    8  C1  UNL     1     -39.160  12.921  50.439  1.00  0.00     0.053 A 
HETATM    9  C2  UNL     1     -39.672  12.275  50.469  1.00  0.00     0.030 A 
HETATM   10  C3  UNL     1     -37.821  12.280  50.385  1.00  0.00     0.052 A 
HETATM   11  C4  UNL     1     -38.001  11.475  50.401  1.00  0.00     0.054 A 
HETATM   12  C5  UNL     1     -39.414  13.701  50.442  1.00  0.00     0.098 A 
HETATM   13  C6  UNL     1     -38.742  11.115  50.439  1.00  0.00     0.032 A 
HETATM   14  C7  UNL     1     -38.088  13.704  50.382  1.00  0.00     0.037 A 
HETATM   15  C8  UNL     1     -37.005  12.548  50.345  1.00  0.00     0.056 A 
HETATM   16  C9  UNL     1     -40.129  10.955  50.503  1.00  0.00     0.005 A 
HETATM   17  C10 UNL     1     -37.379  10.883  50.379  1.00  0.00     0.081 A 
HETATM   18  C11 UNL     1     -36.370  11.970  50.322  1.00  0.00     0.097 A 
HETATM   19  C12 UNL     1     -40.198  13.955  50.475  1.00  0.00     0.119 A 
HETATM   20  C13 UNL     1     -36.558  11.131  50.339  1.00  0.00     0.097 A 
HETATM   21  C14 UNL     1     -41.154  15.016  50.508  1.00  0.00     0.055 A 
HETATM   22  C15 UNL     1     -41.327  15.824  50.507  1.00  0.00    -0.028 A 
ENDROOT
TORSDOF 21
ENDMDL
