MODEL 1
REMARK VINA RESULT:     111.9      0.000      0.000
REMARK  16 active torsions:
REMARK  status: ('A' for Active; 'I' for Inactive)
REMARK    1  A    between atoms: O1_2  and  N2_5 
REMARK    2  A    between atoms: O1_2  and  C3_9 
REMARK    3  A    between atoms: O2_3  and  C9_15 
REMARK    4  A    between atoms: N1_4  and  N2_5 
REMARK    5  A    between atoms: N2_5  and  C7_13 
REMARK    6  A    between atoms: N2_5  and  C9_15 
REMARK    7  A    between atoms: N3_6  and  C7_13 
REMARK    8  A    between atoms: C1_7  and  C6_12 
REMARK    9  A    between atoms: C2_8  and  C3_9 
REMARK   10  A    between atoms: C2_8  and  C5_11 
REMARK   11  A    between atoms: C3_9  and  C4_10 
REMARK   12  A    between atoms: C3_9  and  C6_12 
REMARK   13  A    between atoms: C3_9  and  C7_13 
REMARK   14  A    between atoms: C4_10  and  C5_11 
REMARK   15  A    between atoms: C5_11  and  C6_12 
REMARK   16  A    between atoms: C7_13  and  C8_14 
ROOT
HETATM    1 CL1  UNL     1     -41.169  15.837  50.361  1.00  0.00    -0.156 Cl
HETATM    2  O2  UNL     1     -40.918  15.357  48.247  1.00  0.00     0.000 OA
HETATM    3  N2  UNL     1     -41.101  14.145  48.983  1.00  0.00     0.000 N 
HETATM    4  N3  UNL     1     -40.977  14.534  48.266  1.00  0.00     0.351 N 
HETATM    5  C8  UNL     1     -41.164  14.580  49.681  1.00  0.00     0.324 A 
HETATM    6  C9  UNL     1     -41.105  15.403  49.662  1.00  0.00     0.131 A 
ENDROOT
BRANCH   5   7
HETATM    7  C7  UNL     1     -41.160  13.323  49.002  1.00  0.00     0.271 A 
HETATM    8  O1  UNL     1     -41.135  12.931  49.727  1.00  0.00     0.000 OA
HETATM    9  N1  UNL     1     -41.171  12.891  48.300  1.00  0.00     0.000 N 
HETATM   10  C1  UNL     1     -41.156  12.066  48.323  1.00  0.00     0.032 A 
HETATM   11  C2  UNL     1     -41.167  11.633  47.619  1.00  0.00     0.004 A 
HETATM   12  C3  UNL     1     -41.131  11.674  49.047  1.00  0.00     0.032 A 
HETATM   13  C4  UNL     1     -41.152  10.809  47.642  1.00  0.00     0.004 A 
HETATM   14  C5  UNL     1     -41.116  10.849  49.070  1.00  0.00     0.004 A 
HETATM   15  C6  UNL     1     -41.127  10.417  48.368  1.00  0.00     0.004 A 
ENDBRANCH   5   7
TORSDOF 16
ENDMDL
MODEL 2
REMARK VINA RESULT:     114.9      3.867      4.496
REMARK  16 active torsions:
REMARK  status: ('A' for Active; 'I' for Inactive)
REMARK    1  A    between atoms: O1_2  and  N2_5 
REMARK    2  A    between atoms: O1_2  and  C3_9 
REMARK    3  A    between atoms: O2_3  and  C9_15 
REMARK    4  A    between atoms: N1_4  and  N2_5 
REMARK    5  A    between atoms: N2_5  and  C7_13 
REMARK    6  A    between atoms: N2_5  and  C9_15 
REMARK    7  A    between atoms: N3_6  and  C7_13 
REMARK    8  A    between atoms: C1_7  and  C6_12 
REMARK    9  A    between atoms: C2_8  and  C3_9 
REMARK   10  A    between atoms: C2_8  and  C5_11 
REMARK   11  A    between atoms: C3_9  and  C4_10 
REMARK   12  A    between atoms: C3_9  and  C6_12 
REMARK   13  A    between atoms: C3_9  and  C7_13 
REMARK   14  A    between atoms: C4_10  and  C5_11 
REMARK   15  A    between atoms: C5_11  and  C6_12 
REMARK   16  A    between atoms: C7_13  and  C8_14 
ROOT
HETATM    1 CL1  UNL     1     -35.595  15.599  49.816  1.00  0.00    -0.156 Cl
HETATM    2  O2  UNL     1     -37.074  15.443  48.219  1.00  0.00     0.000 OA
HETATM    3  N2  UNL     1     -37.749  15.622  49.466  1.00  0.00     0.000 N 
HETATM    4  N3  UNL     1     -37.775  15.519  48.648  1.00  0.00     0.351 N 
HETATM    5  C8  UNL     1     -37.022  15.648  49.855  1.00  0.00     0.324 A 
HETATM    6  C9  UNL     1     -36.322  15.572  49.426  1.00  0.00     0.131 A 
ENDROOT
BRANCH   5   7
HETATM    7  C7  UNL     1     -38.450  15.698  49.894  1.00  0.00     0.271 A 
HETATM    8  O1  UNL     1     -38.473  15.699  49.070  1.00  0.00     0.000 OA
HETATM    9  N1  UNL     1     -39.151  15.722  50.327  1.00  0.00     0.000 N 
HETATM   10  C1  UNL     1     -39.877  15.748  49.935  1.00  0.00     0.032 A 
HETATM   11  C2  UNL     1     -40.580  15.772  50.368  1.00  0.00     0.004 A 
HETATM   12  C3  UNL     1     -39.901  15.749  49.110  1.00  0.00     0.032 A 
HETATM   13  C4  UNL     1     -41.305  15.797  49.976  1.00  0.00     0.004 A 
HETATM   14  C5  UNL     1     -40.626  15.774  48.718  1.00  0.00     0.004 A 
HETATM   15  C6  UNL     1     -41.328  15.798  49.151  1.00  0.00     0.004 A 
ENDBRANCH   5   7
TORSDOF 16
ENDMDL
