MODEL 1
REMARK VINA RESULT:     397.2      0.000      0.000
REMARK WARNING: 32 MAX_TORS EXCEEDED!!!
REMARK  39 active torsions:
REMARK  status: ('A' for Active; 'I' for Inactive)
REMARK    1  A    between atoms: F1_1  and  C1_10 
REMARK    2  A    between atoms: F1_1  and  C3_12 
REMARK    3  A    between atoms: F1_1  and  C7_16 
REMARK    4  A    between atoms: F1_1  and  C9_18 
REMARK    5  A    between atoms: F2_2  and  C13_22 
REMARK    6  A    between atoms: O1_3  and  N4_9 
REMARK    7  A    between atoms: O1_3  and  C14_23 
REMARK    8  A    between atoms: N1_6  and  C12_21 
REMARK    9  A    between atoms: N2_7  and  C6_15 
REMARK   10  A    between atoms: N2_7  and  C12_21 
REMARK   11  A    between atoms: N2_7  and  C15_24 
REMARK   12  A    between atoms: N3_8  and  C8_17 
REMARK   13  A    between atoms: N4_9  and  C15_24 
REMARK   14  A    between atoms: C4_13  and  C9_18 
REMARK   15  A    between atoms: C4_13  and  C10_19 
REMARK   16  A    between atoms: C4_13  and  C13_22 
REMARK   17  A    between atoms: C4_13  and  C15_24 
REMARK   18  A    between atoms: C4_13  and  C16_25 
REMARK   19  A    between atoms: C5_14  and  C8_17 
REMARK   20  A    between atoms: C6_15  and  C8_17 
REMARK   21  A    between atoms: C6_15  and  C7_16 
REMARK   22  A    between atoms: C7_16  and  C12_21 
REMARK   23  A    between atoms: C7_16  and  C17_26 
REMARK   24  A    between atoms: C8_17  and  C9_18 
REMARK   25  A    between atoms: C8_17  and  C18_27 
REMARK   26  A    between atoms: C9_18  and  C12_21 
REMARK   27  A    between atoms: C9_18  and  C11_20 
REMARK   28  A    between atoms: C9_18  and  C13_22 
REMARK   29  A    between atoms: C10_19  and  C16_25 
REMARK   30  A    between atoms: C10_19  and  C19_28 
REMARK   31  A    between atoms: C11_20  and  C12_21 
REMARK   32  A    between atoms: C11_20  and  C14_23 
REMARK   33  A    between atoms: C11_20  and  C15_24 
REMARK   34  A    between atoms: C12_21  and  C13_22 
REMARK   35  A    between atoms: C12_21  and  C15_24 
REMARK   36  A    between atoms: C13_22  and  C15_24 
REMARK   37  A    between atoms: C13_22  and  C16_25 
REMARK   38  A    between atoms: C14_23  and  C16_25 
REMARK   39  A    between atoms: C16_25  and  C19_28 
ROOT
HETATM    1  F1  UNL     1     -39.517  13.008  50.004  1.00  0.00    -0.582 F 
HETATM    2  O1  UNL     1     -35.899  12.739  49.920  1.00  0.00     0.000 OA
HETATM    3  O2  UNL     1     -36.337  10.338  50.528  1.00  0.00    -0.316 OA
HETATM    4  O3  UNL     1     -35.416  11.389  50.231  1.00  0.00    -0.316 OA
HETATM    5  N1  UNL     1     -38.280  11.927  50.219  1.00  0.00     0.000 N 
HETATM    6  N4  UNL     1     -36.411  14.054  49.618  1.00  0.00     0.185 N 
HETATM    7  C1  UNL     1     -39.060  11.674  50.313  1.00  0.00     0.087 A 
HETATM    8  C2  UNL     1     -39.601  11.076  50.483  1.00  0.00    -0.001 A 
HETATM    9  C3  UNL     1     -39.868  11.836  50.307  1.00  0.00     0.095 A 
HETATM   10  C4  UNL     1     -38.112  12.744  50.011  1.00  0.00     0.157 A 
HETATM   11  C10 UNL     1     -37.630  11.375  50.327  1.00  0.00     0.146 A 
HETATM   12  C11 UNL     1     -37.336  13.005  49.914  1.00  0.00     0.280 A 
HETATM   13  C12 UNL     1     -38.740  13.270  49.908  1.00  0.00     0.165 A 
HETATM   14  C13 UNL     1     -37.187  13.793  49.714  1.00  0.00     0.257 A 
HETATM   15  C14 UNL     1     -36.821  11.648  50.226  1.00  0.00     0.210 A 
HETATM   16  C16 UNL     1     -36.672  12.468  50.018  1.00  0.00     0.189 A 
HETATM   17  C19 UNL     1     -36.191  11.125  50.328  1.00  0.00     0.211 A 
ENDROOT
BRANCH   1  18
HETATM   18  C7  UNL     1     -39.996  14.320  49.702  1.00  0.00     0.068 A 
HETATM   19  N2  UNL     1     -40.405  14.021  49.051  1.00  0.00     0.000 N 
HETATM   20  C8  UNL     1     -40.848  14.527  48.575  1.00  0.00     0.101 A 
HETATM   21  C9  UNL     1     -40.369  13.215  48.877  1.00  0.00     0.137 A 
HETATM   22  C5  UNL     1     -40.031  15.125  49.877  1.00  0.00     0.052 A 
HETATM   23  F2  UNL     1     -41.222  13.422  47.749  1.00  0.00    -0.497 F 
HETATM   24  C15 UNL     1     -40.778  12.915  48.226  1.00  0.00     0.257 A 
HETATM   25  N3  UNL     1     -40.475  15.631  49.400  1.00  0.00     0.000 N 
HETATM   26  C17 UNL     1     -39.622  15.425  50.528  1.00  0.00     0.030 A 
HETATM   27  C6  UNL     1     -40.884  15.332  48.749  1.00  0.00     0.052 A 
HETATM   28  C18 UNL     1     -41.328  15.838  48.272  1.00  0.00     0.034 A 
ENDBRANCH   1  18
TORSDOF 39
ENDMDL
