MODEL 1
REMARK VINA RESULT:     332.2      0.000      0.000
REMARK  24 active torsions:
REMARK  status: ('A' for Active; 'I' for Inactive)
REMARK    1  A    between atoms: O1_1  and  C6_10 
REMARK    2  A    between atoms: O2_2  and  C13_17 
REMARK    3  A    between atoms: O3_3  and  C8_12 
REMARK    4  A    between atoms: N1_4  and  C6_10 
REMARK    5  A    between atoms: C2_6  and  C12_16 
REMARK    6  A    between atoms: C3_7  and  C14_18 
REMARK    7  A    between atoms: C3_7  and  C16_20 
REMARK    8  A    between atoms: C3_7  and  C17_21 
REMARK    9  A    between atoms: C4_8  and  C9_13 
REMARK   10  A    between atoms: C4_8  and  C13_17 
REMARK   11  A    between atoms: C5_9  and  C14_18 
REMARK   12  A    between atoms: C6_10  and  C13_17 
REMARK   13  A    between atoms: C7_11  and  C8_12 
REMARK   14  A    between atoms: C8_12  and  C14_18 
REMARK   15  A    between atoms: C8_12  and  C12_16 
REMARK   16  A    between atoms: C8_12  and  C16_20 
REMARK   17  A    between atoms: C9_13  and  C10_14 
REMARK   18  A    between atoms: C10_14  and  C11_15 
REMARK   19  A    between atoms: C12_16  and  C15_19 
REMARK   20  A    between atoms: C12_16  and  C17_21 
REMARK   21  A    between atoms: C13_17  and  C16_20 
REMARK   22  A    between atoms: C14_18  and  C15_19 
REMARK   23  A    between atoms: C15_19  and  C16_20 
REMARK   24  A    between atoms: C16_20  and  C17_21 
ROOT
HETATM    1  O1  UNL     1     -38.343  13.468  48.871  1.00  0.00     0.000 OA
HETATM    2  O3  UNL     1     -41.268  15.526  49.472  1.00  0.00     0.000 OA
HETATM    3  C2  UNL     1     -38.837  14.841  49.653  1.00  0.00     0.000 A 
HETATM    4  C3  UNL     1     -39.397  14.374  49.197  1.00  0.00     0.000 A 
HETATM    5  C5  UNL     1     -39.105  15.551  50.055  1.00  0.00     0.000 A 
HETATM    6  C7  UNL     1     -39.929  15.787  49.995  1.00  0.00     0.000 A 
HETATM    7  C8  UNL     1     -40.188  14.600  49.140  1.00  0.00     0.000 A 
HETATM    8  C12 UNL     1     -39.134  13.694  48.814  1.00  0.00     0.000 A 
HETATM    9  C13 UNL     1     -38.079  12.786  48.488  1.00  0.00     0.000 A 
HETATM   10  C14 UNL     1     -40.474  15.308  49.535  1.00  0.00     0.000 A 
HETATM   11  C15 UNL     1     -40.717  14.146  48.699  1.00  0.00     0.000 A 
HETATM   12  C16 UNL     1     -39.662  13.238  48.373  1.00  0.00     0.000 A 
HETATM   13  C17 UNL     1     -40.453  13.464  48.316  1.00  0.00     0.000 A 
ENDROOT
BRANCH   1  14
HETATM   14  C6  UNL     1     -37.288  12.560  48.545  1.00  0.00     0.000 A 
HETATM   15  O2  UNL     1     -37.123  12.997  47.865  1.00  0.00     0.000 OA
HETATM   16  C4  UNL     1     -36.844  11.888  48.722  1.00  0.00     0.000 A 
HETATM   17  N1  UNL     1     -36.234  11.653  48.219  1.00  0.00     0.000 N 
HETATM   18  C1  UNL     1     -35.789  10.981  48.395  1.00  0.00     0.000 A 
HETATM   19  C9  UNL     1     -36.236  10.865  49.079  1.00  0.00     0.000 A 
HETATM   20  C10 UNL     1     -35.342  11.097  47.712  1.00  0.00     0.000 A 
HETATM   21  C11 UNL     1     -35.344  10.309  48.573  1.00  0.00     0.000 A 
ENDBRANCH   1  14
TORSDOF 24
ENDMDL
