MODEL 1
REMARK VINA RESULT:       6.3      0.000      0.000
REMARK  4 active torsions:
REMARK  status: ('A' for Active; 'I' for Inactive)
REMARK    1  A    between atoms: N2_2  and  C1_3 
REMARK    2  A    between atoms: C1_3  and  C4_6 
REMARK    3  A    between atoms: C2_4  and  C4_6 
REMARK    4  A    between atoms: C3_5  and  C4_6 
ROOT
HETATM    1  N1  UNL     1     -41.270  15.593  49.742  1.00  0.00     0.228 N 
HETATM    2  N2  UNL     1     -40.839  15.729  49.051  1.00  0.00     0.228 N 
HETATM    3  C1  UNL     1     -39.991  15.769  50.082  1.00  0.00     0.450 A 
HETATM    4  C2  UNL     1     -40.746  15.617  50.379  1.00  0.00     0.450 A 
HETATM    5  C3  UNL     1     -39.301  15.838  50.528  1.00  0.00     0.194 A 
HETATM    6  C4  UNL     1     -40.048  15.838  49.262  1.00  0.00     0.450 A 
ENDROOT
TORSDOF 4
ENDMDL
MODEL 2
REMARK VINA RESULT:       6.7      1.209      1.469
REMARK  4 active torsions:
REMARK  status: ('A' for Active; 'I' for Inactive)
REMARK    1  A    between atoms: N2_2  and  C1_3 
REMARK    2  A    between atoms: C1_3  and  C4_6 
REMARK    3  A    between atoms: C2_4  and  C4_6 
REMARK    4  A    between atoms: C3_5  and  C4_6 
ROOT
HETATM    1  N1  UNL     1     -39.550  15.804  50.505  1.00  0.00     0.228 N 
HETATM    2  N2  UNL     1     -39.235  15.827  49.742  1.00  0.00     0.228 N 
HETATM    3  C1  UNL     1     -40.566  15.821  49.638  1.00  0.00     0.450 A 
HETATM    4  C2  UNL     1     -40.372  15.801  50.440  1.00  0.00     0.450 A 
HETATM    5  C3  UNL     1     -41.328  15.824  49.323  1.00  0.00     0.194 A 
HETATM    6  C4  UNL     1     -39.863  15.838  49.207  1.00  0.00     0.450 A 
ENDROOT
TORSDOF 4
ENDMDL
