MODEL 1
REMARK VINA RESULT:     400.3      0.000      0.000
REMARK WARNING: 32 MAX_TORS EXCEEDED!!!
REMARK  38 active torsions:
REMARK  status: ('A' for Active; 'I' for Inactive)
REMARK    1  A    between atoms: O1_1  and  C6_10 
REMARK    2  A    between atoms: O1_1  and  C14_18 
REMARK    3  A    between atoms: O1_1  and  C23_27 
REMARK    4  A    between atoms: N1_3  and  C13_17 
REMARK    5  A    between atoms: N1_3  and  C18_22 
REMARK    6  A    between atoms: N2_4  and  C6_10 
REMARK    7  A    between atoms: C1_5  and  C8_12 
REMARK    8  A    between atoms: C1_5  and  C11_15 
REMARK    9  A    between atoms: C2_6  and  C4_8 
REMARK   10  A    between atoms: C2_6  and  C8_12 
REMARK   11  A    between atoms: C2_6  and  C17_21 
REMARK   12  A    between atoms: C3_7  and  C7_11 
REMARK   13  A    between atoms: C3_7  and  C9_13 
REMARK   14  A    between atoms: C3_7  and  C15_19 
REMARK   15  A    between atoms: C4_8  and  C7_11 
REMARK   16  A    between atoms: C4_8  and  C10_14 
REMARK   17  A    between atoms: C4_8  and  C12_16 
REMARK   18  A    between atoms: C5_9  and  C8_12 
REMARK   19  A    between atoms: C5_9  and  C13_17 
REMARK   20  A    between atoms: C6_10  and  C17_21 
REMARK   21  A    between atoms: C6_10  and  C7_11 
REMARK   22  A    between atoms: C6_10  and  C9_13 
REMARK   23  A    between atoms: C6_10  and  C14_18 
REMARK   24  A    between atoms: C7_11  and  C8_12 
REMARK   25  A    between atoms: C7_11  and  C14_18 
REMARK   26  A    between atoms: C8_12  and  C14_18 
REMARK   27  A    between atoms: C8_12  and  C15_19 
REMARK   28  A    between atoms: C9_13  and  C11_15 
REMARK   29  A    between atoms: C10_14  and  C12_16 
REMARK   30  A    between atoms: C11_15  and  C17_21 
REMARK   31  A    between atoms: C12_16  and  C13_17 
REMARK   32  A    between atoms: C12_16  and  C16_20 
REMARK   33  A    between atoms: C14_18  and  C17_21 
REMARK   34  A    between atoms: C15_19  and  C16_20 
REMARK   35  A    between atoms: C16_20  and  C19_23 
REMARK   36  A    between atoms: C17_21  and  C23_27 
REMARK   37  A    between atoms: C21_25  and  C23_27 
REMARK   38  A    between atoms: C22_26  and  C23_27 
ROOT
HETATM    1  O1  UNL     1     -39.832  15.837  49.351  1.00  0.00     0.000 OA
HETATM    2  N2  UNL     1     -39.437  14.607  48.740  1.00  0.00     0.000 N 
HETATM    3  C17 UNL     1     -39.881  15.015  49.303  1.00  0.00     0.000 A 
HETATM    4  C20 UNL     1     -38.943  15.022  48.224  1.00  0.00     0.000 A 
HETATM    5  C21 UNL     1     -38.450  15.436  47.709  1.00  0.00     0.000 A 
HETATM    6  C22 UNL     1     -38.715  14.311  47.872  1.00  0.00     0.000 A 
HETATM    7  C23 UNL     1     -39.171  15.732  48.577  1.00  0.00     0.000 A 
ENDROOT
BRANCH   1   8
HETATM    8  C6  UNL     1     -40.374  14.600  49.818  1.00  0.00     0.000 A 
HETATM    9  C2  UNL     1     -39.660  14.197  49.837  1.00  0.00     0.000 A 
HETATM   10  C1  UNL     1     -39.810  13.429  50.099  1.00  0.00     0.001 A 
HETATM   11  C7  UNL     1     -38.890  14.425  49.649  1.00  0.00     0.000 A 
HETATM   12  C14 UNL     1     -39.509  14.965  49.574  1.00  0.00     0.000 C 
HETATM   13  C3  UNL     1     -39.191  12.890  50.174  1.00  0.00     0.003 A 
HETATM   14  C9  UNL     1     -40.616  13.365  50.240  1.00  0.00     0.000 A 
HETATM   15  C11 UNL     1     -40.963  14.087  50.067  1.00  0.00     0.000 A 
HETATM   16  C4  UNL     1     -38.420  13.119  49.986  1.00  0.00     0.007 A 
HETATM   17  C10 UNL     1     -39.360  12.093  50.448  1.00  0.00     0.003 A 
HETATM   18  C5  UNL     1     -37.767  12.566  50.060  1.00  0.00     0.024 A 
HETATM   19  C8  UNL     1     -38.270  13.886  49.724  1.00  0.00     0.002 A 
HETATM   20  C15 UNL     1     -37.622  13.335  49.798  1.00  0.00     0.007 A 
HETATM   21  C16 UNL     1     -36.938  12.833  49.852  1.00  0.00     0.046 A 
HETATM   22  C12 UNL     1     -37.917  11.765  50.333  1.00  0.00     0.027 A 
HETATM   23  N1  UNL     1     -37.248  11.175  50.416  1.00  0.00     0.000 N 
HETATM   24  C18 UNL     1     -36.256  12.257  49.929  1.00  0.00     0.117 A 
HETATM   25  C19 UNL     1     -36.413  11.423  50.213  1.00  0.00     0.117 A 
HETATM   26  O2  UNL     1     -35.791  10.885  50.287  1.00  0.00    -0.359 OA
HETATM   27  C13 UNL     1     -38.719  11.527  50.528  1.00  0.00     0.004 A 
ENDBRANCH   1   8
TORSDOF 38
ENDMDL
