MODEL 1
REMARK VINA RESULT:     259.3      0.000      0.000
REMARK  28 active torsions:
REMARK  status: ('A' for Active; 'I' for Inactive)
REMARK    1  A    between atoms: N1_1  and  C6_11 
REMARK    2  A    between atoms: N2_2  and  N5_5 
REMARK    3  A    between atoms: N2_2  and  C7_12 
REMARK    4  A    between atoms: N5_5  and  C17_22 
REMARK    5  A    between atoms: C3_8  and  C4_9 
REMARK    6  A    between atoms: C3_8  and  C8_13 
REMARK    7  A    between atoms: C4_9  and  C6_11 
REMARK    8  A    between atoms: C4_9  and  C7_12 
REMARK    9  A    between atoms: C5_10  and  C6_11 
REMARK   10  A    between atoms: C5_10  and  C7_12 
REMARK   11  A    between atoms: C5_10  and  C8_13 
REMARK   12  A    between atoms: C5_10  and  C11_16 
REMARK   13  A    between atoms: C5_10  and  C12_17 
REMARK   14  A    between atoms: C6_11  and  C8_13 
REMARK   15  A    between atoms: C6_11  and  C9_14 
REMARK   16  A    between atoms: C7_12  and  C8_13 
REMARK   17  A    between atoms: C7_12  and  C9_14 
REMARK   18  A    between atoms: C7_12  and  C10_15 
REMARK   19  A    between atoms: C8_13  and  C9_14 
REMARK   20  A    between atoms: C8_13  and  C13_18 
REMARK   21  A    between atoms: C9_14  and  C16_21 
REMARK   22  A    between atoms: C10_15  and  C11_16 
REMARK   23  A    between atoms: C10_15  and  C14_19 
REMARK   24  A    between atoms: C11_16  and  C14_19 
REMARK   25  A    between atoms: C12_17  and  C13_18 
REMARK   26  A    between atoms: C12_17  and  C15_20 
REMARK   27  A    between atoms: C13_18  and  C15_20 
REMARK   28  A    between atoms: C16_21  and  C17_22 
ROOT
HETATM    1  N3  UNL     1     -41.326  15.838  50.485  1.00  0.00    -0.185 N 
HETATM    2  N4  UNL     1     -35.880  15.838  48.748  1.00  0.00    -0.185 N 
HETATM    3  C1  UNL     1     -40.116  15.181  49.576  1.00  0.00     0.021 A 
HETATM    4  C2  UNL     1     -37.393  15.181  48.708  1.00  0.00     0.021 A 
HETATM    5  C3  UNL     1     -39.511  14.852  49.122  1.00  0.00     0.019 A 
HETATM    6  C4  UNL     1     -38.149  14.852  48.688  1.00  0.00     0.019 A 
HETATM    7  C5  UNL     1     -38.755  15.181  49.142  1.00  0.00     0.009 A 
HETATM    8  C6  UNL     1     -39.058  13.865  48.193  1.00  0.00     0.006 A 
HETATM    9  C7  UNL     1     -39.662  14.194  48.647  1.00  0.00     0.008 A 
HETATM   10  C8  UNL     1     -38.301  14.194  48.213  1.00  0.00     0.008 A 
HETATM   11  C10 UNL     1     -40.640  14.610  49.290  1.00  0.00     0.022 A 
HETATM   12  C11 UNL     1     -39.592  15.750  49.861  1.00  0.00     0.022 A 
HETATM   13  C12 UNL     1     -37.655  15.750  49.244  1.00  0.00     0.022 A 
HETATM   14  C13 UNL     1     -37.131  14.611  48.171  1.00  0.00     0.022 A 
HETATM   15  C14 UNL     1     -40.721  15.509  50.030  1.00  0.00     0.087 A 
HETATM   16  C15 UNL     1     -36.637  15.510  48.728  1.00  0.00     0.087 C 
ENDROOT
BRANCH   9  17
HETATM   17  N2  UNL     1     -40.621  13.146  48.121  1.00  0.00     0.000 N 
HETATM   18  N1  UNL     1     -39.933  12.738  47.920  1.00  0.00     0.000 N 
HETATM   19  C9  UNL     1     -39.160  12.996  48.052  1.00  0.00     0.035 A 
HETATM   20  C16 UNL     1     -40.153  12.027  47.565  1.00  0.00     0.292 A 
HETATM   21  N5  UNL     1     -40.977  11.995  47.545  1.00  0.00     0.341 N 
HETATM   22  C17 UNL     1     -41.267  12.687  47.889  1.00  0.00     0.326 A 
ENDBRANCH   9  17
TORSDOF 28
ENDMDL
