MODEL 1
REMARK VINA RESULT:     183.6      0.000      0.000
REMARK  10 active torsions:
REMARK  status: ('A' for Active; 'I' for Inactive)
REMARK    1  A    between atoms: S1_1  and  C2_8 
REMARK    2  A    between atoms: S1_1  and  C6_12 
REMARK    3  A    between atoms: N1_5  and  N2_6 
REMARK    4  A    between atoms: N1_5  and  C3_9 
REMARK    5  A    between atoms: N2_6  and  C4_10 
REMARK    6  A    between atoms: C1_7  and  C4_10 
REMARK    7  A    between atoms: C1_7  and  C5_11 
REMARK    8  A    between atoms: C2_8  and  C4_10 
REMARK    9  A    between atoms: C2_8  and  C3_9 
REMARK   10  A    between atoms: C8_14  and  C10_16 
ROOT
HETATM    1  S1  UNL     1     -40.103  14.445  48.214  1.00  0.00    -0.211 SA
HETATM    2  O1  UNL     1     -41.094  11.283  47.680  1.00  0.00    -0.294 OA
HETATM    3  O2  UNL     1     -36.545  15.820  50.504  1.00  0.00    -0.309 OA
HETATM    4  O3  UNL     1     -36.600  14.392  50.521  1.00  0.00    -0.309 OA
HETATM    5  N1  UNL     1     -40.185  12.294  48.240  1.00  0.00     0.000 N 
HETATM    6  N2  UNL     1     -41.228  12.740  47.537  1.00  0.00     0.000 N 
HETATM    7  C1  UNL     1     -40.153  13.119  48.231  1.00  0.00     0.079 A 
HETATM    8  C2  UNL     1     -40.797  13.394  47.796  1.00  0.00     0.083 A 
HETATM    9  C3  UNL     1     -39.726  13.771  48.487  1.00  0.00     0.051 A 
HETATM   10  C4  UNL     1     -40.764  14.214  47.788  1.00  0.00     0.050 A 
HETATM   11  C5  UNL     1     -39.037  13.749  48.941  1.00  0.00     0.050 A 
HETATM   12  C6  UNL     1     -38.665  14.453  49.160  1.00  0.00     0.078 A 
HETATM   13  C7  UNL     1     -40.850  12.060  47.811  1.00  0.00     0.165 A 
HETATM   14  C8  UNL     1     -37.977  14.433  49.613  1.00  0.00     0.119 A 
HETATM   15  C9  UNL     1     -37.605  15.137  49.831  1.00  0.00     0.208 A 
HETATM   16  C10 UNL     1     -36.917  15.116  50.285  1.00  0.00     0.241 A 
ENDROOT
TORSDOF 10
ENDMDL
