MODEL 1
REMARK VINA RESULT:      79.9      0.000      0.000
REMARK  25 active torsions:
REMARK  status: ('A' for Active; 'I' for Inactive)
REMARK    1  A    between atoms: CL1_1  and  C2_5 
REMARK    2  A    between atoms: CL1_1  and  C3_6 
REMARK    3  A    between atoms: CL1_1  and  C4_7 
REMARK    4  A    between atoms: O1_2  and  C6_9 
REMARK    5  A    between atoms: O1_2  and  C10_13 
REMARK    6  A    between atoms: N1_3  and  C9_12 
REMARK    7  A    between atoms: C1_4  and  C4_7 
REMARK    8  A    between atoms: C1_4  and  C6_9 
REMARK    9  A    between atoms: C2_5  and  C6_9 
REMARK   10  A    between atoms: C2_5  and  C7_10 
REMARK   11  A    between atoms: C2_5  and  C8_11 
REMARK   12  A    between atoms: C3_6  and  C5_8 
REMARK   13  A    between atoms: C3_6  and  C8_11 
REMARK   14  A    between atoms: C4_7  and  C5_8 
REMARK   15  A    between atoms: C5_8  and  C6_9 
REMARK   16  A    between atoms: C5_8  and  C7_10 
REMARK   17  A    between atoms: C5_8  and  C10_13 
REMARK   18  A    between atoms: C7_10  and  C11_14 
REMARK   19  A    between atoms: C7_10  and  C13_16 
REMARK   20  A    between atoms: C8_11  and  C9_12 
REMARK   21  A    between atoms: C8_11  and  C12_15 
REMARK   22  A    between atoms: C9_12  and  C11_14 
REMARK   23  A    between atoms: C9_12  and  C13_16 
REMARK   24  A    between atoms: C11_14  and  C12_15 
REMARK   25  A    between atoms: C12_15  and  C13_16 
ROOT
HETATM    1 CL1  UNL     1     -38.942  15.834  50.270  1.00  0.00    -0.322 Cl
HETATM    2  O1  UNL     1     -41.327  15.565  48.416  1.00  0.00     0.000 OA
HETATM    3  N1  UNL     1     -40.096  15.605  48.244  1.00  0.00     0.000 N 
HETATM    4  C1  UNL     1     -40.059  15.679  49.065  1.00  0.00     0.021 A 
HETATM    5  C2  UNL     1     -39.615  15.759  49.755  1.00  0.00     0.025 A 
HETATM    6  C3  UNL     1     -39.994  15.806  50.486  1.00  0.00     0.026 A 
HETATM    7  C4  UNL     1     -40.817  15.773  50.528  1.00  0.00     0.027 A 
HETATM    8  C5  UNL     1     -40.882  15.646  49.106  1.00  0.00     0.033 A 
HETATM    9  C6  UNL     1     -41.261  15.693  49.837  1.00  0.00     0.034 A 
HETATM   10  C7  UNL     1     -39.255  15.699  48.882  1.00  0.00     0.020 A 
HETATM   11  C8  UNL     1     -38.697  15.777  49.484  1.00  0.00     0.021 A 
HETATM   12  C9  UNL     1     -39.009  15.641  48.097  1.00  0.00     0.029 A 
HETATM   13  C10 UNL     1     -40.829  15.540  47.869  1.00  0.00     0.014 A 
HETATM   14  C11 UNL     1     -37.893  15.797  49.302  1.00  0.00     0.020 A 
HETATM   15  C12 UNL     1     -38.204  15.661  47.914  1.00  0.00     0.026 A 
HETATM   16  C13 UNL     1     -37.646  15.739  48.517  1.00  0.00     0.026 A 
ENDROOT
TORSDOF 25
ENDMDL
MODEL 2
REMARK VINA RESULT:      80.4      2.159      2.857
REMARK  25 active torsions:
REMARK  status: ('A' for Active; 'I' for Inactive)
REMARK    1  A    between atoms: CL1_1  and  C2_5 
REMARK    2  A    between atoms: CL1_1  and  C3_6 
REMARK    3  A    between atoms: CL1_1  and  C4_7 
REMARK    4  A    between atoms: O1_2  and  C6_9 
REMARK    5  A    between atoms: O1_2  and  C10_13 
REMARK    6  A    between atoms: N1_3  and  C9_12 
REMARK    7  A    between atoms: C1_4  and  C4_7 
REMARK    8  A    between atoms: C1_4  and  C6_9 
REMARK    9  A    between atoms: C2_5  and  C6_9 
REMARK   10  A    between atoms: C2_5  and  C7_10 
REMARK   11  A    between atoms: C2_5  and  C8_11 
REMARK   12  A    between atoms: C3_6  and  C5_8 
REMARK   13  A    between atoms: C3_6  and  C8_11 
REMARK   14  A    between atoms: C4_7  and  C5_8 
REMARK   15  A    between atoms: C5_8  and  C6_9 
REMARK   16  A    between atoms: C5_8  and  C7_10 
REMARK   17  A    between atoms: C5_8  and  C10_13 
REMARK   18  A    between atoms: C7_10  and  C11_14 
REMARK   19  A    between atoms: C7_10  and  C13_16 
REMARK   20  A    between atoms: C8_11  and  C9_12 
REMARK   21  A    between atoms: C8_11  and  C12_15 
REMARK   22  A    between atoms: C9_12  and  C11_14 
REMARK   23  A    between atoms: C9_12  and  C13_16 
REMARK   24  A    between atoms: C11_14  and  C12_15 
REMARK   25  A    between atoms: C12_15  and  C13_16 
ROOT
HETATM    1 CL1  UNL     1     -41.326  13.193  49.997  1.00  0.00    -0.322 Cl
HETATM    2  O1  UNL     1     -41.273  15.822  48.484  1.00  0.00     0.000 OA
HETATM    3  N1  UNL     1     -41.280  14.626  48.143  1.00  0.00     0.000 N 
HETATM    4  C1  UNL     1     -41.295  14.472  48.954  1.00  0.00     0.021 A 
HETATM    5  C2  UNL     1     -41.311  13.934  49.578  1.00  0.00     0.025 A 
HETATM    6  C3  UNL     1     -41.321  14.205  50.357  1.00  0.00     0.026 A 
HETATM    7  C4  UNL     1     -41.315  15.015  50.512  1.00  0.00     0.027 A 
HETATM    8  C5  UNL     1     -41.289  15.282  49.108  1.00  0.00     0.033 A 
HETATM    9  C6  UNL     1     -41.299  15.554  49.887  1.00  0.00     0.034 A 
HETATM   10  C7  UNL     1     -41.298  13.701  48.660  1.00  0.00     0.020 A 
HETATM   11  C8  UNL     1     -41.314  13.062  49.182  1.00  0.00     0.021 A 
HETATM   12  C9  UNL     1     -41.286  13.569  47.847  1.00  0.00     0.029 A 
HETATM   13  C10 UNL     1     -41.267  15.406  47.872  1.00  0.00     0.014 A 
HETATM   14  C11 UNL     1     -41.317  12.291  48.889  1.00  0.00     0.020 A 
HETATM   15  C12 UNL     1     -41.290  12.797  47.553  1.00  0.00     0.026 A 
HETATM   16  C13 UNL     1     -41.305  12.159  48.075  1.00  0.00     0.026 A 
ENDROOT
TORSDOF 25
ENDMDL
