MODEL 1
REMARK VINA RESULT:     467.8      0.000      0.000
REMARK WARNING: 32 MAX_TORS EXCEEDED!!!
REMARK  54 active torsions:
REMARK  status: ('A' for Active; 'I' for Inactive)
REMARK    1  A    between atoms: F1_1  and  C7_13 
REMARK    2  A    between atoms: F1_1  and  C17_23 
REMARK    3  A    between atoms: F1_1  and  C18_24 
REMARK    4  A    between atoms: O1_2  and  C7_13 
REMARK    5  A    between atoms: O1_2  and  C12_18 
REMARK    6  A    between atoms: O1_2  and  C15_21 
REMARK    7  A    between atoms: O1_2  and  C20_26 
REMARK    8  A    between atoms: O2_3  and  C7_13 
REMARK    9  A    between atoms: O2_3  and  C17_23 
REMARK   10  A    between atoms: O2_3  and  C18_24 
REMARK   11  A    between atoms: O3_4  and  C8_14 
REMARK   12  A    between atoms: O3_4  and  C16_22 
REMARK   13  A    between atoms: O3_4  and  C20_26 
REMARK   14  A    between atoms: O5_6  and  C21_27 
REMARK   15  A    between atoms: C1_7  and  C4_10 
REMARK   16  A    between atoms: C1_7  and  C9_15 
REMARK   17  A    between atoms: C1_7  and  C15_21 
REMARK   18  A    between atoms: C2_8  and  C4_10 
REMARK   19  A    between atoms: C2_8  and  C8_14 
REMARK   20  A    between atoms: C2_8  and  C9_15 
REMARK   21  A    between atoms: C3_9  and  C4_10 
REMARK   22  A    between atoms: C3_9  and  C6_12 
REMARK   23  A    between atoms: C3_9  and  C7_13 
REMARK   24  A    between atoms: C3_9  and  C9_15 
REMARK   25  A    between atoms: C3_9  and  C10_16 
REMARK   26  A    between atoms: C4_10  and  C7_13 
REMARK   27  A    between atoms: C4_10  and  C11_17 
REMARK   28  A    between atoms: C5_11  and  C6_12 
REMARK   29  A    between atoms: C5_11  and  C7_13 
REMARK   30  A    between atoms: C5_11  and  C12_18 
REMARK   31  A    between atoms: C5_11  and  C20_26 
REMARK   32  A    between atoms: C6_12  and  C8_14 
REMARK   33  A    between atoms: C6_12  and  C16_22 
REMARK   34  A    between atoms: C7_13  and  C9_15 
REMARK   35  A    between atoms: C7_13  and  C12_18 
REMARK   36  A    between atoms: C8_14  and  C15_21 
REMARK   37  A    between atoms: C9_15  and  C10_16 
REMARK   38  A    between atoms: C9_15  and  C12_18 
REMARK   39  A    between atoms: C9_15  and  C17_23 
REMARK   40  A    between atoms: C10_16  and  C13_19 
REMARK   41  A    between atoms: C11_17  and  C14_20 
REMARK   42  A    between atoms: C12_18  and  C15_21 
REMARK   43  A    between atoms: C12_18  and  C20_26 
REMARK   44  A    between atoms: C13_19  and  C14_20 
REMARK   45  A    between atoms: C13_19  and  C19_25 
REMARK   46  A    between atoms: C14_20  and  C17_23 
REMARK   47  A    between atoms: C14_20  and  C18_24 
REMARK   48  A    between atoms: C14_20  and  C22_28 
REMARK   49  A    between atoms: C15_21  and  C16_22 
REMARK   50  A    between atoms: C17_23  and  C18_24 
REMARK   51  A    between atoms: C17_23  and  C21_27 
REMARK   52  A    between atoms: C18_24  and  C22_28 
REMARK   53  A    between atoms: C19_25  and  C21_27 
REMARK   54  A    between atoms: C21_27  and  C22_28 
ROOT
HETATM    1  F1  UNL     1     -38.030  12.284  49.731  1.00  0.00    -0.622 F 
HETATM    2  O2  UNL     1     -38.379  12.076  50.216  1.00  0.00     0.000 OA
HETATM    3  O5  UNL     1     -35.385  10.330  48.841  1.00  0.00     0.000 OA
HETATM    4  C4  UNL     1     -37.804  12.792  49.122  1.00  0.00     0.029 A 
HETATM    5  C9  UNL     1     -38.382  12.724  49.707  1.00  0.00     0.032 A 
HETATM    6  C10 UNL     1     -37.205  12.180  49.054  1.00  0.00     0.026 A 
HETATM    7  C14 UNL     1     -36.599  12.244  48.447  1.00  0.00     0.049 A 
HETATM    8  C17 UNL     1     -37.636  11.878  49.689  1.00  0.00     0.043 A 
HETATM    9  C18 UNL     1     -37.219  11.484  49.616  1.00  0.00     0.035 A 
HETATM   10  C19 UNL     1     -35.967  11.617  48.361  1.00  0.00     0.031 A 
HETATM   11  C21 UNL     1     -36.594  10.846  49.545  1.00  0.00     0.051 A 
HETATM   12  C22 UNL     1     -35.964  10.913  48.913  1.00  0.00     0.033 A 
ENDROOT
BRANCH   1  13
HETATM   13  C7  UNL     1     -38.962  13.306  49.781  1.00  0.00     0.027 A 
HETATM   14  C1  UNL     1     -39.540  13.434  49.207  1.00  0.00     0.053 A 
HETATM   15  C2  UNL     1     -39.586  12.935  48.551  1.00  0.00     0.047 A 
HETATM   16  C5  UNL     1     -40.132  13.997  49.136  1.00  0.00     0.057 A 
HETATM   17  C12 UNL     1     -39.493  13.933  49.862  1.00  0.00     0.071 C 
HETATM   18  O1  UNL     1     -39.890  14.338  49.848  1.00  0.00     0.000 OA
HETATM   19  C3  UNL     1     -39.056  12.309  48.470  1.00  0.00     0.046 A 
HETATM   20  C6  UNL     1     -40.207  13.194  48.081  1.00  0.00     0.028 A 
HETATM   21  C8  UNL     1     -40.542  13.850  48.442  1.00  0.00     0.037 A 
HETATM   22  C11 UNL     1     -39.114  11.796  47.783  1.00  0.00     0.035 A 
HETATM   23  C13 UNL     1     -38.564  11.142  47.694  1.00  0.00     0.032 A 
HETATM   24  C15 UNL     1     -40.623  14.642  49.289  1.00  0.00     0.078 A 
HETATM   25  O3  UNL     1     -41.226  14.836  48.761  1.00  0.00     0.000 OA
HETATM   26  C16 UNL     1     -41.183  14.285  48.156  1.00  0.00     0.029 A 
HETATM   27  C20 UNL     1     -40.510  15.094  49.971  1.00  0.00     0.119 A 
HETATM   28  O4  UNL     1     -41.002  15.739  50.123  1.00  0.00    -0.365 OA
ENDBRANCH   1  13
TORSDOF 54
ENDMDL
