MODEL 1
REMARK VINA RESULT:      34.0      0.000      0.000
REMARK  14 active torsions:
REMARK  status: ('A' for Active; 'I' for Inactive)
REMARK    1  A    between atoms: F2_2  and  O1_8 
REMARK    2  A    between atoms: F2_2  and  C1_9 
REMARK    3  A    between atoms: F2_2  and  C4_12 
REMARK    4  A    between atoms: F3_3  and  F6_6 
REMARK    5  A    between atoms: F3_3  and  C1_9 
REMARK    6  A    between atoms: F3_3  and  C3_11 
REMARK    7  A    between atoms: F5_5  and  O1_8 
REMARK    8  A    between atoms: F5_5  and  C1_9 
REMARK    9  A    between atoms: F6_6  and  C1_9 
REMARK   10  A    between atoms: F6_6  and  C2_10 
REMARK   11  A    between atoms: O1_8  and  C3_11 
REMARK   12  A    between atoms: C1_9  and  C3_11 
REMARK   13  A    between atoms: C2_10  and  C3_11 
REMARK   14  A    between atoms: C2_10  and  C4_12 
ROOT
HETATM    1  F1  UNL     1     -40.020  15.788  47.905  1.00  0.00    -0.232 F 
HETATM    2  F2  UNL     1     -39.383  15.797  48.883  1.00  0.00    -0.292 F 
HETATM    3  F3  UNL     1     -40.956  15.458  48.519  1.00  0.00    -0.267 F 
HETATM    4  F7  UNL     1     -38.350  15.827  50.368  1.00  0.00    -0.186 F 
HETATM    5  O1  UNL     1     -39.713  15.533  50.051  1.00  0.00     0.000 OA
HETATM    6  C1  UNL     1     -40.319  15.467  49.496  1.00  0.00     0.402 A 
HETATM    7  C2  UNL     1     -40.170  15.627  48.701  1.00  0.00     0.409 A 
HETATM    8  C4  UNL     1     -38.957  15.761  49.812  1.00  0.00     0.421 A 
ENDROOT
BRANCH   5   9
HETATM    9  F5  UNL     1     -40.811  15.185  50.516  1.00  0.00    -0.228 F 
HETATM   10  C3  UNL     1     -40.611  14.438  50.230  1.00  0.00     0.446 A 
HETATM   11  F4  UNL     1     -41.327  14.138  50.514  1.00  0.00    -0.208 F 
HETATM   12  F6  UNL     1     -40.413  13.689  49.944  1.00  0.00    -0.265 F 
ENDBRANCH   5   9
TORSDOF 14
ENDMDL
