MODEL 1
REMARK VINA RESULT:     267.8      0.000      0.000
REMARK  18 active torsions:
REMARK  status: ('A' for Active; 'I' for Inactive)
REMARK    1  A    between atoms: O2_2  and  C4_7 
REMARK    2  A    between atoms: O3_3  and  C5_8 
REMARK    3  A    between atoms: C2_5  and  C6_9 
REMARK    4  A    between atoms: C2_5  and  C7_10 
REMARK    5  A    between atoms: C3_6  and  C5_8 
REMARK    6  A    between atoms: C4_7  and  C5_8 
REMARK    7  A    between atoms: C4_7  and  C7_10 
REMARK    8  A    between atoms: C5_8  and  C7_10 
REMARK    9  A    between atoms: C6_9  and  C10_13 
REMARK   10  A    between atoms: C8_11  and  C13_16 
REMARK   11  A    between atoms: C9_12  and  C10_13 
REMARK   12  A    between atoms: C9_12  and  C11_14 
REMARK   13  A    between atoms: C9_12  and  C13_16 
REMARK   14  A    between atoms: C10_13  and  C12_15 
REMARK   15  A    between atoms: C11_14  and  C12_15 
REMARK   16  A    between atoms: C12_15  and  C13_16 
REMARK   17  A    between atoms: C12_15  and  C14_17 
REMARK   18  A    between atoms: C13_16  and  C15_18 
ROOT
HETATM    1  O1  UNL     1     -39.521  12.728  49.417  1.00  0.00     0.000 OA
HETATM    2  O2  UNL     1     -35.630  11.053  50.076  1.00  0.00     0.000 OA
HETATM    3  O3  UNL     1     -36.698  10.221  49.618  1.00  0.00     0.000 OA
HETATM    4  C1  UNL     1     -36.926  11.611  49.856  1.00  0.00     0.000 A 
HETATM    5  C2  UNL     1     -37.436  12.261  49.862  1.00  0.00     0.000 A 
HETATM    6  C3  UNL     1     -38.224  12.169  49.636  1.00  0.00     0.000 A 
HETATM    7  C4  UNL     1     -36.310  12.092  50.120  1.00  0.00     0.000 A 
HETATM    8  C5  UNL     1     -37.543  11.131  49.592  1.00  0.00     0.000 A 
HETATM    9  C6  UNL     1     -38.733  12.818  49.642  1.00  0.00     0.000 A 
HETATM   10  C7  UNL     1     -36.418  10.962  49.850  1.00  0.00     0.000 A 
HETATM   11  C8  UNL     1     -40.030  13.377  49.423  1.00  0.00     0.000 A 
HETATM   12  C9  UNL     1     -40.818  13.285  49.198  1.00  0.00     0.000 A 
HETATM   13  C10 UNL     1     -39.751  14.117  49.655  1.00  0.00     0.000 A 
HETATM   14  C11 UNL     1     -40.260  14.767  49.661  1.00  0.00     0.000 A 
HETATM   15  C12 UNL     1     -41.327  13.935  49.204  1.00  0.00     0.000 A 
HETATM   16  C13 UNL     1     -41.048  14.676  49.435  1.00  0.00     0.000 A 
HETATM   17  C14 UNL     1     -41.098  12.545  48.966  1.00  0.00     0.000 A 
HETATM   18  C15 UNL     1     -39.980  15.508  49.893  1.00  0.00     0.000 A 
ENDROOT
TORSDOF 18
ENDMDL
