MODEL 1
REMARK VINA RESULT:     259.1      0.000      0.000
REMARK  28 active torsions:
REMARK  status: ('A' for Active; 'I' for Inactive)
REMARK    1  A    between atoms: CL1_1  and  C16_19 
REMARK    2  A    between atoms: C1_4  and  C9_12 
REMARK    3  A    between atoms: C1_4  and  C10_13 
REMARK    4  A    between atoms: C1_4  and  C11_14 
REMARK    5  A    between atoms: C2_5  and  C3_6 
REMARK    6  A    between atoms: C2_5  and  C4_7 
REMARK    7  A    between atoms: C2_5  and  C14_17 
REMARK    8  A    between atoms: C2_5  and  C16_19 
REMARK    9  A    between atoms: C3_6  and  C5_8 
REMARK   10  A    between atoms: C3_6  and  C8_11 
REMARK   11  A    between atoms: C3_6  and  C17_20 
REMARK   12  A    between atoms: C4_7  and  C12_15 
REMARK   13  A    between atoms: C5_8  and  C13_16 
REMARK   14  A    between atoms: C6_9  and  C10_13 
REMARK   15  A    between atoms: C6_9  and  C14_17 
REMARK   16  A    between atoms: C7_10  and  C11_14 
REMARK   17  A    between atoms: C7_10  and  C15_18 
REMARK   18  A    between atoms: C8_11  and  C11_14 
REMARK   19  A    between atoms: C8_11  and  C19_22 
REMARK   20  A    between atoms: C10_13  and  C12_15 
REMARK   21  A    between atoms: C10_13  and  C16_19 
REMARK   22  A    between atoms: C11_14  and  C13_16 
REMARK   23  A    between atoms: C11_14  and  C17_20 
REMARK   24  A    between atoms: C12_15  and  C14_17 
REMARK   25  A    between atoms: C13_16  and  C15_18 
REMARK   26  A    between atoms: C14_17  and  C16_19 
REMARK   27  A    between atoms: C15_18  and  C17_20 
REMARK   28  A    between atoms: C18_21  and  C19_22 
ROOT
HETATM    1 CL1  UNL     1     -39.197  15.623  50.389  1.00  0.00    -0.252 Cl
HETATM    2  N1  UNL     1     -39.988  13.411  48.996  1.00  0.00     0.000 N 
HETATM    3  N2  UNL     1     -38.465  11.272  49.794  1.00  0.00    -0.006 N 
HETATM    4  C1  UNL     1     -39.411  13.110  49.448  1.00  0.00     0.062 A 
HETATM    5  C2  UNL     1     -40.130  14.184  49.091  1.00  0.00     0.032 A 
HETATM    6  C3  UNL     1     -40.345  12.899  48.510  1.00  0.00     0.027 A 
HETATM    7  C4  UNL     1     -41.191  14.426  48.167  1.00  0.00     0.009 A 
HETATM    8  C5  UNL     1     -41.311  13.713  47.845  1.00  0.00     0.005 A 
HETATM    9  C6  UNL     1     -40.666  14.636  48.721  1.00  0.00     0.029 A 
HETATM   10  C7  UNL     1     -40.935  13.033  47.997  1.00  0.00     0.004 A 
HETATM   11  C8  UNL     1     -39.227  12.341  49.395  1.00  0.00     0.174 A 
HETATM   12  C9  UNL     1     -38.649  12.040  49.848  1.00  0.00     0.220 A 
HETATM   13  C10 UNL     1     -39.625  14.505  49.659  1.00  0.00     0.043 A 
HETATM   14  C11 UNL     1     -40.020  12.145  48.593  1.00  0.00     0.027 A 
HETATM   15  C12 UNL     1     -40.733  15.440  48.895  1.00  0.00     0.032 A 
HETATM   16  C13 UNL     1     -41.239  12.423  47.533  1.00  0.00     0.004 A 
HETATM   17  C14 UNL     1     -39.678  15.306  49.845  1.00  0.00     0.047 A 
HETATM   18  C15 UNL     1     -40.312  11.522  48.136  1.00  0.00     0.004 A 
HETATM   19  C16 UNL     1     -40.236  15.777  49.461  1.00  0.00     0.047 A 
HETATM   20  C17 UNL     1     -40.926  11.663  47.603  1.00  0.00     0.004 A 
HETATM   21  C18 UNL     1     -37.888  10.971  50.246  1.00  0.00     0.247 A 
HETATM   22  C19 UNL     1     -38.857  10.804  49.289  1.00  0.00     0.242 A 
ENDROOT
TORSDOF 28
ENDMDL
