MODEL 1
REMARK VINA RESULT:      50.2      0.000      0.000
REMARK  17 active torsions:
REMARK  status: ('A' for Active; 'I' for Inactive)
REMARK    1  A    between atoms: CL1_1  and  C5_9 
REMARK    2  A    between atoms: CL2_2  and  C7_11 
REMARK    3  A    between atoms: N1_4  and  C3_7 
REMARK    4  A    between atoms: N1_4  and  C8_12 
REMARK    5  A    between atoms: C1_5  and  C3_7 
REMARK    6  A    between atoms: C1_5  and  C6_10 
REMARK    7  A    between atoms: C1_5  and  C7_11 
REMARK    8  A    between atoms: C2_6  and  C4_8 
REMARK    9  A    between atoms: C2_6  and  C6_10 
REMARK   10  A    between atoms: C2_6  and  C7_11 
REMARK   11  A    between atoms: C3_7  and  C4_8 
REMARK   12  A    between atoms: C3_7  and  C7_11 
REMARK   13  A    between atoms: C4_8  and  C5_9 
REMARK   14  A    between atoms: C4_8  and  C6_10 
REMARK   15  A    between atoms: C5_9  and  C9_13 
REMARK   16  A    between atoms: C6_10  and  C7_11 
REMARK   17  A    between atoms: C8_12  and  C9_13 
ROOT
HETATM    1 CL1  UNL     1     -41.273  15.247  50.522  1.00  0.00    -0.273 Cl
HETATM    2 CL2  UNL     1     -41.302  14.828  47.695  1.00  0.00    -0.236 Cl
HETATM    3  O1  UNL     1     -39.693  15.184  47.626  1.00  0.00     0.000 OA
HETATM    4  N1  UNL     1     -38.841  15.576  48.990  1.00  0.00     0.000 N 
HETATM    5  C1  UNL     1     -40.073  15.409  49.763  1.00  0.00     0.061 A 
HETATM    6  C2  UNL     1     -39.678  15.393  49.039  1.00  0.00     0.063 A 
HETATM    7  C3  UNL     1     -40.088  15.200  48.350  1.00  0.00     0.077 A 
HETATM    8  C4  UNL     1     -40.878  15.231  49.798  1.00  0.00     0.068 A 
HETATM    9  C5  UNL     1     -39.658  15.609  50.488  1.00  0.00     0.045 A 
HETATM   10  C6  UNL     1     -40.893  15.022  48.384  1.00  0.00     0.077 A 
HETATM   11  C7  UNL     1     -41.288  15.038  49.108  1.00  0.00     0.072 A 
HETATM   12  C8  UNL     1     -38.819  15.795  50.458  1.00  0.00     0.026 A 
HETATM   13  C9  UNL     1     -38.408  15.779  49.705  1.00  0.00     0.020 A 
ENDROOT
TORSDOF 17
ENDMDL
