MODEL 1
REMARK VINA RESULT:     487.0      0.000      0.000
REMARK WARNING: 32 MAX_TORS EXCEEDED!!!
REMARK  35 active torsions:
REMARK  status: ('A' for Active; 'I' for Inactive)
REMARK    1  A    between atoms: O1_1  and  C3_6 
REMARK    2  A    between atoms: O1_1  and  C13_16 
REMARK    3  A    between atoms: N1_2  and  C7_10 
REMARK    4  A    between atoms: C1_4  and  C9_12 
REMARK    5  A    between atoms: C1_4  and  C13_16 
REMARK    6  A    between atoms: C2_5  and  C3_6 
REMARK    7  A    between atoms: C2_5  and  C5_8 
REMARK    8  A    between atoms: C3_6  and  C4_7 
REMARK    9  A    between atoms: C4_7  and  C5_8 
REMARK   10  A    between atoms: C6_9  and  C7_10 
REMARK   11  A    between atoms: C6_9  and  C12_15 
REMARK   12  A    between atoms: C6_9  and  C13_16 
REMARK   13  A    between atoms: C6_9  and  C18_21 
REMARK   14  A    between atoms: C7_10  and  C9_12 
REMARK   15  A    between atoms: C7_10  and  C13_16 
REMARK   16  A    between atoms: C7_10  and  C19_22 
REMARK   17  A    between atoms: C8_11  and  C9_12 
REMARK   18  A    between atoms: C8_11  and  C14_17 
REMARK   19  A    between atoms: C9_12  and  C21_24 
REMARK   20  A    between atoms: C10_13  and  C13_16 
REMARK   21  A    between atoms: C10_13  and  C19_22 
REMARK   22  A    between atoms: C12_15  and  C24_27 
REMARK   23  A    between atoms: C13_16  and  C14_17 
REMARK   24  A    between atoms: C13_16  and  C20_23 
REMARK   25  A    between atoms: C14_17  and  C19_22 
REMARK   26  A    between atoms: C14_17  and  C21_24 
REMARK   27  A    between atoms: C15_18  and  C16_19 
REMARK   28  A    between atoms: C17_20  and  C18_21 
REMARK   29  A    between atoms: C17_20  and  C23_26 
REMARK   30  A    between atoms: C18_21  and  C22_25 
REMARK   31  A    between atoms: C18_21  and  C24_27 
REMARK   32  A    between atoms: C19_22  and  C20_23 
REMARK   33  A    between atoms: C20_23  and  C21_24 
REMARK   34  A    between atoms: C22_25  and  C23_26 
REMARK   35  A    between atoms: C23_26  and  C24_27 
ROOT
HETATM    1  O1  UNL     1     -36.904  12.144  49.960  1.00  0.00     0.000 OA
HETATM    2  N1  UNL     1     -37.451  13.696  49.848  1.00  0.00     0.000 N 
HETATM    3  N2  UNL     1     -39.193  12.592  49.134  1.00  0.00     0.000 N 
HETATM    4  C1  UNL     1     -37.940  13.069  49.628  1.00  0.00     0.000 A 
HETATM    5  C2  UNL     1     -37.647  14.497  49.822  1.00  0.00     0.000 A 
HETATM    6  C3  UNL     1     -36.679  13.632  50.132  1.00  0.00     0.000 A 
HETATM    7  C4  UNL     1     -36.996  14.928  50.090  1.00  0.00     0.000 A 
HETATM    8  C5  UNL     1     -36.398  14.393  50.281  1.00  0.00     0.000 A 
HETATM    9  C6  UNL     1     -38.704  13.219  49.353  1.00  0.00     0.000 A 
HETATM   10  C7  UNL     1     -37.667  12.293  49.685  1.00  0.00     0.000 A 
HETATM   11  C8  UNL     1     -39.956  12.742  48.858  1.00  0.00     0.000 A 
HETATM   12  C9  UNL     1     -38.919  11.816  49.190  1.00  0.00     0.000 A 
HETATM   13  C10 UNL     1     -36.630  11.367  50.016  1.00  0.00     0.000 A 
HETATM   14  C11 UNL     1     -35.867  11.217  50.292  1.00  0.00     0.000 A 
HETATM   15  C12 UNL     1     -40.229  13.518  48.802  1.00  0.00     0.000 A 
HETATM   16  C13 UNL     1     -38.157  11.666  49.465  1.00  0.00     0.000 A 
HETATM   17  C14 UNL     1     -39.409  11.190  48.971  1.00  0.00     0.000 A 
HETATM   18  C15 UNL     1     -35.593  10.441  50.348  1.00  0.00     0.000 A 
HETATM   19  C16 UNL     1     -35.377  11.845  50.511  1.00  0.00     0.000 A 
HETATM   20  C17 UNL     1     -40.993  13.667  48.527  1.00  0.00     0.000 A 
HETATM   21  C18 UNL     1     -39.740  14.145  49.022  1.00  0.00     0.000 A 
HETATM   22  C19 UNL     1     -37.883  10.890  49.521  1.00  0.00     0.000 A 
HETATM   23  C20 UNL     1     -39.135  10.413  49.027  1.00  0.00     0.000 A 
HETATM   24  C21 UNL     1     -38.372  10.263  49.302  1.00  0.00     0.000 A 
HETATM   25  C22 UNL     1     -41.266  14.444  48.471  1.00  0.00     0.000 A 
HETATM   26  C23 UNL     1     -40.013  14.921  48.965  1.00  0.00     0.000 A 
HETATM   27  C24 UNL     1     -40.776  15.071  48.690  1.00  0.00     0.000 A 
ENDROOT
TORSDOF 35
ENDMDL
