MODEL 1
REMARK VINA RESULT:     248.2      0.000      0.000
REMARK WARNING: 32 MAX_TORS EXCEEDED!!!
REMARK  36 active torsions:
REMARK  status: ('A' for Active; 'I' for Inactive)
REMARK    1  A    between atoms: S1_1  and  N1_2 
REMARK    2  A    between atoms: S1_1  and  C6_9 
REMARK    3  A    between atoms: N1_2  and  C7_10 
REMARK    4  A    between atoms: N1_2  and  C8_11 
REMARK    5  A    between atoms: C1_4  and  C5_8 
REMARK    6  A    between atoms: C1_4  and  C9_12 
REMARK    7  A    between atoms: C1_4  and  C12_15 
REMARK    8  A    between atoms: C2_5  and  C3_6 
REMARK    9  A    between atoms: C2_5  and  C9_12 
REMARK   10  A    between atoms: C2_5  and  C10_13 
REMARK   11  A    between atoms: C3_6  and  C4_7 
REMARK   12  A    between atoms: C4_7  and  C5_8 
REMARK   13  A    between atoms: C4_7  and  C9_12 
REMARK   14  A    between atoms: C4_7  and  C12_15 
REMARK   15  A    between atoms: C4_7  and  C15_18 
REMARK   16  A    between atoms: C5_8  and  C6_9 
REMARK   17  A    between atoms: C5_8  and  C8_11 
REMARK   18  A    between atoms: C5_8  and  C13_16 
REMARK   19  A    between atoms: C5_8  and  C17_20 
REMARK   20  A    between atoms: C6_9  and  C8_11 
REMARK   21  A    between atoms: C6_9  and  C7_10 
REMARK   22  A    between atoms: C6_9  and  C14_17 
REMARK   23  A    between atoms: C6_9  and  C18_21 
REMARK   24  A    between atoms: C7_10  and  C9_12 
REMARK   25  A    between atoms: C7_10  and  C15_18 
REMARK   26  A    between atoms: C8_11  and  C10_13 
REMARK   27  A    between atoms: C8_11  and  C16_19 
REMARK   28  A    between atoms: C9_12  and  C13_16 
REMARK   29  A    between atoms: C9_12  and  C17_20 
REMARK   30  A    between atoms: C10_13  and  C14_17 
REMARK   31  A    between atoms: C10_13  and  C18_21 
REMARK   32  A    between atoms: C11_14  and  C12_15 
REMARK   33  A    between atoms: C13_16  and  C15_18 
REMARK   34  A    between atoms: C14_17  and  C16_19 
REMARK   35  A    between atoms: C15_18  and  C17_20 
REMARK   36  A    between atoms: C16_19  and  C18_21 
ROOT
HETATM    1  S1  UNL     1     -38.909  15.586  50.055  1.00  0.00    -0.235 SA
HETATM    2  N1  UNL     1     -39.103  14.019  50.192  1.00  0.00     0.000 N 
HETATM    3  N2  UNL     1     -38.033  11.504  50.435  1.00  0.00    -0.011 N 
HETATM    4  C1  UNL     1     -38.568  12.761  50.313  1.00  0.00     0.160 A 
HETATM    5  C2  UNL     1     -39.200  13.235  50.260  1.00  0.00     0.062 A 
HETATM    6  C3  UNL     1     -38.665  11.978  50.382  1.00  0.00     0.197 A 
HETATM    7  C4  UNL     1     -37.839  13.070  50.299  1.00  0.00     0.081 A 
HETATM    8  C5  UNL     1     -38.374  14.327  50.177  1.00  0.00     0.036 A 
HETATM    9  C6  UNL     1     -39.735  14.493  50.138  1.00  0.00     0.019 A 
HETATM   10  C7  UNL     1     -38.277  15.111  50.109  1.00  0.00     0.020 A 
HETATM   11  C8  UNL     1     -39.638  15.277  50.070  1.00  0.00     0.019 A 
HETATM   12  C9  UNL     1     -37.723  13.824  50.233  1.00  0.00     0.043 A 
HETATM   13  C10 UNL     1     -40.490  14.160  50.155  1.00  0.00     0.022 A 
HETATM   14  C11 UNL     1     -38.130  10.721  50.503  1.00  0.00     0.244 A 
HETATM   15  C12 UNL     1     -37.304  11.813  50.420  1.00  0.00     0.217 A 
HETATM   16  C13 UNL     1     -37.522  15.444  50.092  1.00  0.00     0.021 A 
HETATM   17  C14 UNL     1     -40.289  15.780  50.013  1.00  0.00     0.018 A 
HETATM   18  C15 UNL     1     -36.961  14.140  50.219  1.00  0.00     0.025 A 
HETATM   19  C16 UNL     1     -41.152  14.649  50.099  1.00  0.00     0.020 A 
HETATM   20  C17 UNL     1     -36.860  14.955  50.148  1.00  0.00     0.022 A 
HETATM   21  C18 UNL     1     -41.051  15.465  50.028  1.00  0.00     0.020 A 
ENDROOT
TORSDOF 36
ENDMDL
