MODEL 1
REMARK VINA RESULT:     246.5      0.000      0.000
REMARK WARNING: 32 MAX_TORS EXCEEDED!!!
REMARK  33 active torsions:
REMARK  status: ('A' for Active; 'I' for Inactive)
REMARK    1  A    between atoms: O1_1  and  C4_9 
REMARK    2  A    between atoms: O1_1  and  C19_24 
REMARK    3  A    between atoms: N2_4  and  C6_11 
REMARK    4  A    between atoms: N3_5  and  C4_9 
REMARK    5  A    between atoms: N3_5  and  C18_23 
REMARK    6  A    between atoms: C1_6  and  C8_13 
REMARK    7  A    between atoms: C2_7  and  C3_8 
REMARK    8  A    between atoms: C2_7  and  C4_9 
REMARK    9  A    between atoms: C2_7  and  C6_11 
REMARK   10  A    between atoms: C2_7  and  C8_13 
REMARK   11  A    between atoms: C3_8  and  C7_12 
REMARK   12  A    between atoms: C3_8  and  C11_16 
REMARK   13  A    between atoms: C3_8  and  C12_17 
REMARK   14  A    between atoms: C4_9  and  C9_14 
REMARK   15  A    between atoms: C4_9  and  C13_18 
REMARK   16  A    between atoms: C5_10  and  C9_14 
REMARK   17  A    between atoms: C5_10  and  C11_16 
REMARK   18  A    between atoms: C5_10  and  C13_18 
REMARK   19  A    between atoms: C6_11  and  C12_17 
REMARK   20  A    between atoms: C6_11  and  C7_12 
REMARK   21  A    between atoms: C6_11  and  C10_15 
REMARK   22  A    between atoms: C7_12  and  C8_13 
REMARK   23  A    between atoms: C7_12  and  C9_14 
REMARK   24  A    between atoms: C7_12  and  C10_15 
REMARK   25  A    between atoms: C8_13  and  C12_17 
REMARK   26  A    between atoms: C8_13  and  C14_19 
REMARK   27  A    between atoms: C9_14  and  C13_18 
REMARK   28  A    between atoms: C9_14  and  C14_19 
REMARK   29  A    between atoms: C10_15  and  C16_21 
REMARK   30  A    between atoms: C13_18  and  C19_24 
REMARK   31  A    between atoms: C14_19  and  C15_20 
REMARK   32  A    between atoms: C15_20  and  C16_21 
REMARK   33  A    between atoms: C18_23  and  C19_24 
ROOT
HETATM    1  O1  UNL     1     -38.966  15.722  50.527  1.00  0.00     0.000 OA
HETATM    2  O2  UNL     1     -36.289  15.835  49.238  1.00  0.00    -0.357 OA
HETATM    3  N3  UNL     1     -38.461  15.626  49.195  1.00  0.00     0.000 N 
HETATM    4  C13 UNL     1     -39.098  15.623  49.719  1.00  0.00     0.028 A 
HETATM    5  C17 UNL     1     -37.693  15.729  49.479  1.00  0.00     0.120 A 
HETATM    6  C18 UNL     1     -37.057  15.732  48.954  1.00  0.00     0.142 A 
HETATM    7  C19 UNL     1     -37.562  15.828  50.287  1.00  0.00     0.059 A 
ENDROOT
BRANCH   1   8
HETATM    8  C4  UNL     1     -39.866  15.520  49.435  1.00  0.00     0.006 A 
HETATM    9  C5  UNL     1     -40.384  15.838  48.827  1.00  0.00     0.006 A 
HETATM   10  N1  UNL     1     -40.799  15.299  48.301  1.00  0.00     0.000 N 
HETATM   11  C1  UNL     1     -40.690  14.452  48.391  1.00  0.00     0.046 A 
HETATM   12  C11 UNL     1     -41.298  15.595  47.715  1.00  0.00     0.008 A 
HETATM   13  C2  UNL     1     -40.193  14.148  48.974  1.00  0.00     0.048 A 
HETATM   14  C3  UNL     1     -41.092  13.941  47.882  1.00  0.00     0.071 A 
HETATM   15  C7  UNL     1     -40.097  13.332  49.049  1.00  0.00     0.064 A 
HETATM   16  C9  UNL     1     -39.770  14.670  49.509  1.00  0.00     0.014 A 
HETATM   17  C14 UNL     1     -39.576  13.026  49.661  1.00  0.00     0.031 A 
HETATM   18  C16 UNL     1     -39.473  12.177  49.745  1.00  0.00     0.035 A 
HETATM   19  C6  UNL     1     -40.996  13.125  47.958  1.00  0.00     0.153 A 
HETATM   20  C8  UNL     1     -40.499  12.820  48.542  1.00  0.00     0.128 A 
HETATM   21  C10 UNL     1     -40.408  11.969  48.610  1.00  0.00     0.165 A 
HETATM   22  N2  UNL     1     -41.018  11.800  47.868  1.00  0.00    -0.023 N 
HETATM   23  C15 UNL     1     -39.891  11.645  49.216  1.00  0.00     0.051 A 
HETATM   24  C12 UNL     1     -41.315  12.492  47.544  1.00  0.00     0.204 A 
ENDBRANCH   1   8
TORSDOF 33
ENDMDL
