MODEL 1
REMARK VINA RESULT:     490.7      0.000      0.000
REMARK WARNING: 32 MAX_TORS EXCEEDED!!!
REMARK  52 active torsions:
REMARK  status: ('A' for Active; 'I' for Inactive)
REMARK    1  A    between atoms: O1_1  and  O2_2 
REMARK    2  A    between atoms: O1_1  and  C12_18 
REMARK    3  A    between atoms: O1_1  and  C15_21 
REMARK    4  A    between atoms: O1_1  and  C19_25 
REMARK    5  A    between atoms: O3_3  and  C8_14 
REMARK    6  A    between atoms: O3_3  and  C17_23 
REMARK    7  A    between atoms: O3_3  and  C18_24 
REMARK    8  A    between atoms: O4_4  and  C8_14 
REMARK    9  A    between atoms: O4_4  and  C12_18 
REMARK   10  A    between atoms: O4_4  and  C19_25 
REMARK   11  A    between atoms: O5_5  and  C20_26 
REMARK   12  A    between atoms: O6_6  and  C23_29 
REMARK   13  A    between atoms: C1_7  and  C5_11 
REMARK   14  A    between atoms: C1_7  and  C6_12 
REMARK   15  A    between atoms: C1_7  and  C9_15 
REMARK   16  A    between atoms: C2_8  and  C6_12 
REMARK   17  A    between atoms: C2_8  and  C9_15 
REMARK   18  A    between atoms: C3_9  and  C7_13 
REMARK   19  A    between atoms: C3_9  and  C8_14 
REMARK   20  A    between atoms: C3_9  and  C9_15 
REMARK   21  A    between atoms: C3_9  and  C17_23 
REMARK   22  A    between atoms: C4_10  and  C7_13 
REMARK   23  A    between atoms: C4_10  and  C8_14 
REMARK   24  A    between atoms: C4_10  and  C12_18 
REMARK   25  A    between atoms: C4_10  and  C19_25 
REMARK   26  A    between atoms: C5_11  and  C8_14 
REMARK   27  A    between atoms: C5_11  and  C11_17 
REMARK   28  A    between atoms: C6_12  and  C7_13 
REMARK   29  A    between atoms: C6_12  and  C15_21 
REMARK   30  A    between atoms: C8_14  and  C9_15 
REMARK   31  A    between atoms: C8_14  and  C12_18 
REMARK   32  A    between atoms: C8_14  and  C15_21 
REMARK   33  A    between atoms: C9_15  and  C10_16 
REMARK   34  A    between atoms: C9_15  and  C12_18 
REMARK   35  A    between atoms: C9_15  and  C17_23 
REMARK   36  A    between atoms: C10_16  and  C13_19 
REMARK   37  A    between atoms: C11_17  and  C16_22 
REMARK   38  A    between atoms: C12_18  and  C15_21 
REMARK   39  A    between atoms: C12_18  and  C19_25 
REMARK   40  A    between atoms: C13_19  and  C16_22 
REMARK   41  A    between atoms: C13_19  and  C22_28 
REMARK   42  A    between atoms: C14_20  and  C15_21 
REMARK   43  A    between atoms: C14_20  and  C19_25 
REMARK   44  A    between atoms: C15_21  and  C20_26 
REMARK   45  A    between atoms: C16_22  and  C18_24 
REMARK   46  A    between atoms: C16_22  and  C24_30 
REMARK   47  A    between atoms: C17_23  and  C18_24 
REMARK   48  A    between atoms: C18_24  and  C24_30 
REMARK   49  A    between atoms: C19_25  and  C20_26 
REMARK   50  A    between atoms: C20_26  and  C21_27 
REMARK   51  A    between atoms: C22_28  and  C23_29 
REMARK   52  A    between atoms: C23_29  and  C24_30 
ROOT
HETATM    1  O1  UNL     1     -40.404  14.760  49.154  1.00  0.00     0.000 OA
HETATM    2  O2  UNL     1     -40.204  15.155  47.910  1.00  0.00     0.000 OA
HETATM    3  O3  UNL     1     -38.322  12.325  50.411  1.00  0.00     0.000 OA
HETATM    4  O4  UNL     1     -39.991  13.909  50.202  1.00  0.00     0.000 OA
HETATM    5  O5  UNL     1     -41.250  14.969  50.336  1.00  0.00     0.000 OA
HETATM    6  O6  UNL     1     -35.432  10.328  49.160  1.00  0.00     0.000 OA
HETATM    7  C1  UNL     1     -39.219  13.760  49.032  1.00  0.00     0.000 A 
HETATM    8  C2  UNL     1     -38.749  13.649  48.364  1.00  0.00     0.000 A 
HETATM    9  C3  UNL     1     -38.136  13.097  48.378  1.00  0.00     0.000 A 
HETATM   10  C4  UNL     1     -39.775  14.337  48.856  1.00  0.00     0.000 A 
HETATM   11  C5  UNL     1     -37.994  12.656  49.060  1.00  0.00     0.000 A 
HETATM   12  C6  UNL     1     -39.650  14.582  48.083  1.00  0.00     0.000 A 
HETATM   13  C7  UNL     1     -39.018  14.158  47.780  1.00  0.00     0.000 A 
HETATM   14  C8  UNL     1     -39.077  13.319  49.715  1.00  0.00     0.000 A 
HETATM   15  C9  UNL     1     -38.464  12.766  49.729  1.00  0.00     0.000 A 
HETATM   16  C10 UNL     1     -37.359  12.077  49.087  1.00  0.00     0.000 A 
HETATM   17  C11 UNL     1     -37.653  12.990  47.675  1.00  0.00     0.000 A 
HETATM   18  C12 UNL     1     -39.689  13.871  49.701  1.00  0.00     0.000 A 
HETATM   19  C13 UNL     1     -37.014  12.417  47.683  1.00  0.00     0.000 A 
HETATM   20  C14 UNL     1     -40.669  15.265  48.571  1.00  0.00     0.000 A 
HETATM   21  C15 UNL     1     -40.198  14.388  49.562  1.00  0.00     0.000 A 
HETATM   22  C16 UNL     1     -36.865  11.957  48.395  1.00  0.00     0.000 A 
HETATM   23  C17 UNL     1     -37.833  12.193  49.752  1.00  0.00     0.000 A 
HETATM   24  C18 UNL     1     -37.220  11.609  49.837  1.00  0.00     0.000 A 
HETATM   25  C19 UNL     1     -40.827  14.917  49.629  1.00  0.00     0.000 A 
HETATM   26  C20 UNL     1     -41.251  15.548  49.082  1.00  0.00     0.000 A 
HETATM   27  C21 UNL     1     -41.105  15.838  48.168  1.00  0.00     0.000 A 
HETATM   28  C22 UNL     1     -36.199  11.359  48.403  1.00  0.00     0.000 A 
HETATM   29  C23 UNL     1     -36.559  11.006  49.865  1.00  0.00     0.000 A 
HETATM   30  C24 UNL     1     -36.044  10.881  49.143  1.00  0.00     0.000 A 
ENDROOT
TORSDOF 52
ENDMDL
