MODEL 1
REMARK VINA RESULT:     134.3      0.000      0.000
REMARK  14 active torsions:
REMARK  status: ('A' for Active; 'I' for Inactive)
REMARK    1  A    between atoms: O1_1  and  C2_10 
REMARK    2  A    between atoms: O1_1  and  C5_13 
REMARK    3  A    between atoms: O2_2  and  C3_11 
REMARK    4  A    between atoms: O4_4  and  C2_10 
REMARK    5  A    between atoms: N1_5  and  N2_6 
REMARK    6  A    between atoms: N2_6  and  N3_7 
REMARK    7  A    between atoms: N3_7  and  C8_16 
REMARK    8  A    between atoms: N3_7  and  N4_8 
REMARK    9  A    between atoms: C1_9  and  C4_12 
REMARK   10  A    between atoms: C1_9  and  C5_13 
REMARK   11  A    between atoms: C2_10  and  C3_11 
REMARK   12  A    between atoms: C4_12  and  C6_14 
REMARK   13  A    between atoms: C6_14  and  C7_15 
REMARK   14  A    between atoms: C7_15  and  C8_16 
ROOT
HETATM    1  O1  UNL     1     -38.196  13.346  50.498  1.00  0.00     0.000 OA
HETATM    2  O2  UNL     1     -36.183  14.055  50.508  1.00  0.00     0.000 OA
HETATM    3  O3  UNL     1     -37.477  11.781  50.482  1.00  0.00    -0.359 OA
HETATM    4  O4  UNL     1     -38.380  15.811  50.524  1.00  0.00     0.000 OA
HETATM    5  N1  UNL     1     -39.045  14.546  50.510  1.00  0.00     0.000 N 
HETATM    6  N2  UNL     1     -39.809  15.754  50.522  1.00  0.00     0.000 N 
HETATM    7  N3  UNL     1     -40.473  14.490  50.507  1.00  0.00     0.000 N 
HETATM    8  N4  UNL     1     -41.237  15.698  50.519  1.00  0.00    -0.133 NA
HETATM    9  C1  UNL     1     -37.000  13.936  50.506  1.00  0.00     0.055 A 
HETATM   10  C2  UNL     1     -37.575  14.527  50.512  1.00  0.00     0.032 A 
HETATM   11  C3  UNL     1     -37.384  13.207  50.498  1.00  0.00     0.100 A 
HETATM   12  C4  UNL     1     -38.315  14.162  50.507  1.00  0.00     0.030 A 
HETATM   13  C5  UNL     1     -37.018  12.467  50.490  1.00  0.00     0.140 A 
HETATM   14  C6  UNL     1     -39.079  15.370  50.519  1.00  0.00     0.021 A 
HETATM   15  C7  UNL     1     -39.743  14.106  50.504  1.00  0.00     0.021 A 
HETATM   16  C8  UNL     1     -40.506  15.314  50.516  1.00  0.00     0.092 A 
ENDROOT
TORSDOF 14
ENDMDL
