MODEL 1
REMARK VINA RESULT:      47.3      0.000      0.000
REMARK  15 active torsions:
REMARK  status: ('A' for Active; 'I' for Inactive)
REMARK    1  A    between atoms: N1_1  and  N2_2 
REMARK    2  A    between atoms: N1_1  and  C1_5 
REMARK    3  A    between atoms: N2_2  and  C1_5 
REMARK    4  A    between atoms: N3_3  and  C2_6 
REMARK    5  A    between atoms: C1_5  and  C7_11 
REMARK    6  A    between atoms: C1_5  and  C8_12 
REMARK    7  A    between atoms: C2_6  and  C7_11 
REMARK    8  A    between atoms: C2_6  and  C6_10 
REMARK    9  A    between atoms: C3_7  and  C4_8 
REMARK   10  A    between atoms: C3_7  and  C7_11 
REMARK   11  A    between atoms: C4_8  and  C5_9 
REMARK   12  A    between atoms: C4_8  and  C8_12 
REMARK   13  A    between atoms: C5_9  and  C6_10 
REMARK   14  A    between atoms: C5_9  and  C7_11 
REMARK   15  A    between atoms: C6_10  and  C8_12 
ROOT
HETATM    1  N1  UNL     1     -41.181  13.801  48.255  1.00  0.00     0.285 N 
HETATM    2  N2  UNL     1     -40.215  14.678  47.831  1.00  0.00     0.000 N 
HETATM    3  N3  UNL     1     -39.752  15.306  47.966  1.00  0.00     0.179 N 
HETATM    4  N4  UNL     1     -41.143  13.423  47.561  1.00  0.00    -0.022 NA
HETATM    5  C1  UNL     1     -40.755  14.807  49.085  1.00  0.00     0.247 A 
HETATM    6  C2  UNL     1     -40.292  15.435  49.220  1.00  0.00     0.230 A 
HETATM    7  C3  UNL     1     -40.717  14.429  48.390  1.00  0.00     0.404 A 
HETATM    8  C4  UNL     1     -41.282  14.538  49.660  1.00  0.00     0.129 A 
HETATM    9  C5  UNL     1     -40.323  15.837  49.940  1.00  0.00     0.102 A 
HETATM   10  C6  UNL     1     -41.327  14.928  50.386  1.00  0.00     0.077 A 
HETATM   11  C7  UNL     1     -39.790  15.684  48.661  1.00  0.00     0.292 A 
HETATM   12  C8  UNL     1     -40.844  15.582  50.527  1.00  0.00     0.077 A 
ENDROOT
TORSDOF 15
ENDMDL
