MODEL 1
REMARK VINA RESULT:     398.9      0.000      0.000
REMARK  21 active torsions:
REMARK  status: ('A' for Active; 'I' for Inactive)
REMARK    1  A    between atoms: O1_1  and  C3_13 
REMARK    2  A    between atoms: O1_1  and  C5_15 
REMARK    3  A    between atoms: O2_2  and  C3_13 
REMARK    4  A    between atoms: O3_3  and  C4_14 
REMARK    5  A    between atoms: O5_5  and  C8_18 
REMARK    6  A    between atoms: N1_6  and  C8_18 
REMARK    7  A    between atoms: N2_7  and  C6_16 
REMARK    8  A    between atoms: N2_7  and  C9_19 
REMARK    9  A    between atoms: N3_8  and  N4_9 
REMARK   10  A    between atoms: N4_9  and  C10_20 
REMARK   11  A    between atoms: N4_9  and  N5_10 
REMARK   12  A    between atoms: N4_9  and  C8_18 
REMARK   13  A    between atoms: C1_11  and  C4_14 
REMARK   14  A    between atoms: C2_12  and  C3_13 
REMARK   15  A    between atoms: C3_13  and  C4_14 
REMARK   16  A    between atoms: C3_13  and  C5_15 
REMARK   17  A    between atoms: C6_16  and  C7_17 
REMARK   18  A    between atoms: C6_16  and  C9_19 
REMARK   19  A    between atoms: C8_18  and  C9_19 
REMARK   20  A    between atoms: C8_18  and  C10_20 
REMARK   21  A    between atoms: C9_19  and  C10_20 
ROOT
HETATM    1  O1  UNL     1     -38.830  13.954  48.459  1.00  0.00     0.000 OA
HETATM    2  O2  UNL     1     -40.273  12.406  48.178  1.00  0.00     0.000 OA
HETATM    3  O3  UNL     1     -40.958  14.059  48.330  1.00  0.00     0.000 OA
HETATM    4  O4  UNL     1     -40.338  15.564  48.551  1.00  0.00    -0.359 OA
HETATM    5  N1  UNL     1     -38.487  12.532  48.312  1.00  0.00     0.000 N 
HETATM    6  N2  UNL     1     -37.983  11.309  48.200  1.00  0.00     0.000 N 
HETATM    7  N3  UNL     1     -37.169  13.235  48.484  1.00  0.00     0.000 N 
HETATM    8  N5  UNL     1     -35.851  13.765  48.635  1.00  0.00    -0.135 NA
HETATM    9  C1  UNL     1     -39.843  13.102  48.290  1.00  0.00     0.032 A 
HETATM   10  C2  UNL     1     -39.022  13.160  48.352  1.00  0.00     0.029 A 
HETATM   11  C3  UNL     1     -40.157  13.861  48.360  1.00  0.00     0.055 A 
HETATM   12  C4  UNL     1     -39.532  14.388  48.465  1.00  0.00     0.100 A 
HETATM   13  C5  UNL     1     -39.596  15.205  48.558  1.00  0.00     0.140 A 
HETATM   14  C6  UNL     1     -37.672  12.590  48.373  1.00  0.00     0.019 A 
HETATM   15  C7  UNL     1     -38.680  11.742  48.205  1.00  0.00     0.005 A 
HETATM   16  C8  UNL     1     -37.359  11.830  48.303  1.00  0.00     0.018 A 
HETATM   17  C10 UNL     1     -36.354  13.120  48.524  1.00  0.00     0.077 A 
ENDROOT
BRANCH  14  18
HETATM   18  C9  UNL     1     -36.542  11.715  48.344  1.00  0.00     0.018 A 
HETATM   19  O5  UNL     1     -35.820  11.471  48.659  1.00  0.00     0.000 OA
HETATM   20  C11 UNL     1     -35.412  10.842  48.316  1.00  0.00     0.002 A 
HETATM   21  N4  UNL     1     -36.857  11.330  47.686  1.00  0.00     0.000 N 
ENDBRANCH  14  18
TORSDOF 21
ENDMDL
