MODEL 1
REMARK VINA RESULT:     134.9      0.000      0.000
REMARK  23 active torsions:
REMARK  status: ('A' for Active; 'I' for Inactive)
REMARK    1  A    between atoms: S1_1  and  N2_6 
REMARK    2  A    between atoms: S1_1  and  C2_9 
REMARK    3  A    between atoms: O1_2  and  C4_11 
REMARK    4  A    between atoms: O2_3  and  N2_6 
REMARK    5  A    between atoms: O2_3  and  C2_9 
REMARK    6  A    between atoms: O2_3  and  C6_13 
REMARK    7  A    between atoms: O3_4  and  C1_8 
REMARK    8  A    between atoms: O3_4  and  C5_12 
REMARK    9  A    between atoms: N1_5  and  C2_9 
REMARK   10  A    between atoms: N1_5  and  N2_6 
REMARK   11  A    between atoms: N2_6  and  C3_10 
REMARK   12  A    between atoms: N3_7  and  C8_15 
REMARK   13  A    between atoms: C1_8  and  C9_16 
REMARK   14  A    between atoms: C3_10  and  C4_11 
REMARK   15  A    between atoms: C3_10  and  C11_18 
REMARK   16  A    between atoms: C4_11  and  C10_17 
REMARK   17  A    between atoms: C5_12  and  C6_13 
REMARK   18  A    between atoms: C5_12  and  C8_15 
REMARK   19  A    between atoms: C5_12  and  C9_16 
REMARK   20  A    between atoms: C6_13  and  C7_14 
REMARK   21  A    between atoms: C6_13  and  C9_16 
REMARK   22  A    between atoms: C7_14  and  C8_15 
REMARK   23  A    between atoms: C8_15  and  C9_16 
ROOT
HETATM    1  S1  UNL     1     -40.995  13.755  48.135  1.00  0.00    -0.200 SA
HETATM    2  O2  UNL     1     -40.795  13.075  48.556  1.00  0.00     0.000 OA
HETATM    3  O3  UNL     1     -41.195  14.436  47.714  1.00  0.00     0.000 OA
HETATM    4  N1  UNL     1     -41.325  13.290  47.538  1.00  0.00     0.000 N 
HETATM    5  N3  UNL     1     -39.678  15.617  50.520  1.00  0.00    -0.273 NA
HETATM    6  C1  UNL     1     -40.666  14.221  48.731  1.00  0.00     0.066 A 
HETATM    7  C5  UNL     1     -40.674  15.042  48.665  1.00  0.00     0.066 A 
HETATM    8  C6  UNL     1     -40.329  13.864  49.393  1.00  0.00     0.066 A 
HETATM    9  C7  UNL     1     -40.345  15.508  49.261  1.00  0.00     0.074 A 
HETATM   10  C8  UNL     1     -39.999  14.329  49.989  1.00  0.00     0.074 A 
HETATM   11  C9  UNL     1     -40.007  15.151  49.924  1.00  0.00     0.074 A 
ENDROOT
BRANCH   1  12
HETATM   12  N2  UNL     1     -41.000  12.035  48.232  1.00  0.00     0.000 N 
HETATM   13  C2  UNL     1     -40.412  12.480  47.861  1.00  0.00     0.032 A 
HETATM   14  O1  UNL     1     -39.850  11.957  47.559  1.00  0.00     0.000 OA
HETATM   15  C3  UNL     1     -40.090  11.189  47.742  1.00  0.00     0.009 A 
HETATM   16  C4  UNL     1     -40.801  11.238  48.158  1.00  0.00     0.009 A 
HETATM   17  C10 UNL     1     -39.690  10.496  47.545  1.00  0.00     0.002 A 
HETATM   18  C11 UNL     1     -41.236  10.600  48.449  1.00  0.00     0.002 A 
ENDBRANCH   1  12
TORSDOF 23
ENDMDL
