MODEL 1
REMARK VINA RESULT:     142.2      0.000      0.000
REMARK  17 active torsions:
REMARK  status: ('A' for Active; 'I' for Inactive)
REMARK    1  A    between atoms: O1_1  and  C7_12 
REMARK    2  A    between atoms: O2_2  and  C10_15 
REMARK    3  A    between atoms: N1_4  and  C3_8 
REMARK    4  A    between atoms: N2_5  and  C11_16 
REMARK    5  A    between atoms: N2_5  and  C12_17 
REMARK    6  A    between atoms: C2_7  and  C6_11 
REMARK    7  A    between atoms: C2_7  and  C7_12 
REMARK    8  A    between atoms: C2_7  and  C8_13 
REMARK    9  A    between atoms: C3_8  and  C8_13 
REMARK   10  A    between atoms: C4_9  and  C6_11 
REMARK   11  A    between atoms: C5_10  and  C6_11 
REMARK   12  A    between atoms: C7_12  and  C11_16 
REMARK   13  A    between atoms: C8_13  and  C9_14 
REMARK   14  A    between atoms: C8_13  and  C11_16 
REMARK   15  A    between atoms: C9_14  and  C10_15 
REMARK   16  A    between atoms: C10_15  and  C11_16 
REMARK   17  A    between atoms: C11_16  and  C12_17 
ROOT
HETATM    1  O1  UNL     1     -39.119  12.986  49.023  1.00  0.00     0.000 OA
HETATM    2  O2  UNL     1     -41.104  15.836  50.517  1.00  0.00     0.000 OA
HETATM    3  O3  UNL     1     -38.671  15.381  50.517  1.00  0.00    -0.361 OA
HETATM    4  N1  UNL     1     -40.154  11.940  48.277  1.00  0.00     0.000 N 
HETATM    5  N2  UNL     1     -39.706  14.335  49.770  1.00  0.00     0.000 N 
HETATM    6  C1  UNL     1     -40.671  11.417  47.904  1.00  0.00     0.000 A 
HETATM    7  C2  UNL     1     -40.447  12.614  48.650  1.00  0.00     0.004 A 
HETATM    8  C3  UNL     1     -39.930  13.137  49.024  1.00  0.00     0.005 A 
HETATM    9  C4  UNL     1     -41.189  10.893  47.530  1.00  0.00     0.000 A 
HETATM   10  C5  UNL     1     -40.033  10.939  47.688  1.00  0.00     0.000 A 
HETATM   11  C6  UNL     1     -41.309  11.893  48.119  1.00  0.00     0.000 A 
HETATM   12  C7  UNL     1     -40.223  13.811  49.397  1.00  0.00     0.026 A 
HETATM   13  C8  UNL     1     -41.034  13.963  49.397  1.00  0.00     0.026 A 
HETATM   14  C9  UNL     1     -39.999  15.010  50.144  1.00  0.00     0.082 A 
HETATM   15  C10 UNL     1     -41.328  14.638  49.770  1.00  0.00     0.030 A 
HETATM   16  C11 UNL     1     -40.810  15.162  50.144  1.00  0.00     0.050 A 
HETATM   17  C12 UNL     1     -39.482  15.533  50.517  1.00  0.00     0.138 A 
ENDROOT
TORSDOF 17
ENDMDL
