MODEL 1
REMARK VINA RESULT:      52.2      0.000      0.000
REMARK  11 active torsions:
REMARK  status: ('A' for Active; 'I' for Inactive)
REMARK    1  A    between atoms: O1_1  and  C3_9 
REMARK    2  A    between atoms: O1_1  and  C6_12 
REMARK    3  A    between atoms: O2_2  and  C3_9 
REMARK    4  A    between atoms: O3_3  and  C4_10 
REMARK    5  A    between atoms: N1_6  and  C5_11 
REMARK    6  A    between atoms: C1_7  and  C4_10 
REMARK    7  A    between atoms: C1_7  and  C5_11 
REMARK    8  A    between atoms: C2_8  and  C3_9 
REMARK    9  A    between atoms: C2_8  and  C5_11 
REMARK   10  A    between atoms: C2_8  and  C6_12 
REMARK   11  A    between atoms: C3_9  and  C4_10 
ROOT
HETATM    1  O1  UNL     1     -41.009  14.223  49.209  1.00  0.00     0.000 OA
HETATM    2  O2  UNL     1     -39.135  15.836  49.097  1.00  0.00     0.000 OA
HETATM    3  O3  UNL     1     -39.441  14.837  47.819  1.00  0.00     0.000 OA
HETATM    4  O4  UNL     1     -41.327  14.683  50.523  1.00  0.00    -0.335 OA
HETATM    5  O5  UNL     1     -41.315  13.224  47.932  1.00  0.00    -0.352 OA
HETATM    6  N1  UNL     1     -40.078  15.759  50.449  1.00  0.00    -0.228 NA
HETATM    7  C1  UNL     1     -39.760  15.298  49.135  1.00  0.00     0.139 A 
HETATM    8  C2  UNL     1     -39.913  14.799  48.496  1.00  0.00     0.137 A 
HETATM    9  C3  UNL     1     -40.231  15.260  49.810  1.00  0.00     0.162 A 
HETATM   10  C4  UNL     1     -40.537  14.261  48.533  1.00  0.00     0.161 A 
HETATM   11  C5  UNL     1     -40.856  14.722  49.848  1.00  0.00     0.162 A 
HETATM   12  C6  UNL     1     -40.690  13.762  47.894  1.00  0.00     0.155 A 
ENDROOT
TORSDOF 11
ENDMDL
MODEL 2
REMARK VINA RESULT:      52.8      1.492      2.343
REMARK  11 active torsions:
REMARK  status: ('A' for Active; 'I' for Inactive)
REMARK    1  A    between atoms: O1_1  and  C3_9 
REMARK    2  A    between atoms: O1_1  and  C6_12 
REMARK    3  A    between atoms: O2_2  and  C3_9 
REMARK    4  A    between atoms: O3_3  and  C4_10 
REMARK    5  A    between atoms: N1_6  and  C5_11 
REMARK    6  A    between atoms: C1_7  and  C4_10 
REMARK    7  A    between atoms: C1_7  and  C5_11 
REMARK    8  A    between atoms: C2_8  and  C3_9 
REMARK    9  A    between atoms: C2_8  and  C5_11 
REMARK   10  A    between atoms: C2_8  and  C6_12 
REMARK   11  A    between atoms: C3_9  and  C4_10 
ROOT
HETATM    1  O1  UNL     1     -39.679  15.591  48.382  1.00  0.00     0.000 OA
HETATM    2  O2  UNL     1     -38.436  15.629  50.523  1.00  0.00     0.000 OA
HETATM    3  O3  UNL     1     -40.070  15.399  50.522  1.00  0.00     0.000 OA
HETATM    4  O4  UNL     1     -38.460  15.808  47.671  1.00  0.00    -0.335 OA
HETATM    5  O5  UNL     1     -41.313  15.362  48.382  1.00  0.00    -0.352 OA
HETATM    6  N1  UNL     1     -37.631  15.833  49.097  1.00  0.00    -0.228 NA
HETATM    7  C1  UNL     1     -38.850  15.616  49.809  1.00  0.00     0.139 A 
HETATM    8  C2  UNL     1     -39.667  15.502  49.809  1.00  0.00     0.137 A 
HETATM    9  C3  UNL     1     -38.448  15.719  49.097  1.00  0.00     0.162 A 
HETATM   10  C4  UNL     1     -40.082  15.489  49.096  1.00  0.00     0.161 A 
HETATM   11  C5  UNL     1     -38.862  15.706  48.383  1.00  0.00     0.162 A 
HETATM   12  C6  UNL     1     -40.899  15.374  49.095  1.00  0.00     0.155 A 
ENDROOT
TORSDOF 11
ENDMDL
MODEL 3
REMARK VINA RESULT:      54.7      1.033      2.027
REMARK  11 active torsions:
REMARK  status: ('A' for Active; 'I' for Inactive)
REMARK    1  A    between atoms: O1_1  and  C3_9 
REMARK    2  A    between atoms: O1_1  and  C6_12 
REMARK    3  A    between atoms: O2_2  and  C3_9 
REMARK    4  A    between atoms: O3_3  and  C4_10 
REMARK    5  A    between atoms: N1_6  and  C5_11 
REMARK    6  A    between atoms: C1_7  and  C4_10 
REMARK    7  A    between atoms: C1_7  and  C5_11 
REMARK    8  A    between atoms: C2_8  and  C3_9 
REMARK    9  A    between atoms: C2_8  and  C5_11 
REMARK   10  A    between atoms: C2_8  and  C6_12 
REMARK   11  A    between atoms: C3_9  and  C4_10 
ROOT
HETATM    1  O1  UNL     1     -39.010  15.673  49.066  1.00  0.00     0.000 OA
HETATM    2  O2  UNL     1     -41.320  14.785  49.117  1.00  0.00     0.000 OA
HETATM    3  O3  UNL     1     -40.524  14.930  47.679  1.00  0.00     0.000 OA
HETATM    4  O4  UNL     1     -39.036  15.824  50.486  1.00  0.00    -0.335 OA
HETATM    5  O5  UNL     1     -38.214  15.817  47.628  1.00  0.00    -0.352 OA
HETATM    6  N1  UNL     1     -40.576  15.233  50.520  1.00  0.00    -0.228 NA
HETATM    7  C1  UNL     1     -40.550  15.081  49.100  1.00  0.00     0.139 A 
HETATM    8  C2  UNL     1     -40.152  15.153  48.381  1.00  0.00     0.137 A 
HETATM    9  C3  UNL     1     -40.178  15.305  49.801  1.00  0.00     0.162 A 
HETATM   10  C4  UNL     1     -39.382  15.449  48.363  1.00  0.00     0.161 A 
HETATM   11  C5  UNL     1     -39.408  15.601  49.785  1.00  0.00     0.162 A 
HETATM   12  C6  UNL     1     -38.984  15.521  47.644  1.00  0.00     0.155 A 
ENDROOT
TORSDOF 11
ENDMDL
