MODEL 1
REMARK VINA RESULT:     302.6      0.000      0.000
REMARK  28 active torsions:
REMARK  status: ('A' for Active; 'I' for Inactive)
REMARK    1  A    between atoms: S1_1  and  N2_7 
REMARK    2  A    between atoms: O1_2  and  N2_7 
REMARK    3  A    between atoms: O1_2  and  C2_11 
REMARK    4  A    between atoms: O1_2  and  C3_12 
REMARK    5  A    between atoms: O2_3  and  C1_10 
REMARK    6  A    between atoms: O2_3  and  C4_13 
REMARK    7  A    between atoms: O3_4  and  C9_18 
REMARK    8  A    between atoms: O4_5  and  C5_14 
REMARK    9  A    between atoms: O4_5  and  C11_20 
REMARK   10  A    between atoms: N1_6  and  C5_14 
REMARK   11  A    between atoms: N2_7  and  N4_9 
REMARK   12  A    between atoms: N2_7  and  C5_14 
REMARK   13  A    between atoms: N3_8  and  C7_16 
REMARK   14  A    between atoms: N4_9  and  C10_19 
REMARK   15  A    between atoms: N4_9  and  C5_14 
REMARK   16  A    between atoms: C1_10  and  C8_17 
REMARK   17  A    between atoms: C2_11  and  C9_18 
REMARK   18  A    between atoms: C3_12  and  C4_13 
REMARK   19  A    between atoms: C3_12  and  C7_16 
REMARK   20  A    between atoms: C3_12  and  C8_17 
REMARK   21  A    between atoms: C4_13  and  C6_15 
REMARK   22  A    between atoms: C4_13  and  C8_17 
REMARK   23  A    between atoms: C5_14  and  C9_18 
REMARK   24  A    between atoms: C5_14  and  C10_19 
REMARK   25  A    between atoms: C6_15  and  C7_16 
REMARK   26  A    between atoms: C7_16  and  C8_17 
REMARK   27  A    between atoms: C9_18  and  C10_19 
REMARK   28  A    between atoms: C9_18  and  C11_20 
ROOT
HETATM    1  S1  UNL     1     -38.892  14.171  49.020  1.00  0.00    -0.201 SA
HETATM    2  O1  UNL     1     -38.609  13.467  49.341  1.00  0.00     0.000 OA
HETATM    3  O2  UNL     1     -39.174  14.877  48.698  1.00  0.00     0.000 OA
HETATM    4  O3  UNL     1     -40.717  12.929  47.902  1.00  0.00     0.000 OA
HETATM    5  N1  UNL     1     -39.501  13.758  48.647  1.00  0.00     0.000 N 
HETATM    6  N2  UNL     1     -39.010  12.536  49.204  1.00  0.00     0.000 N 
HETATM    7  N3  UNL     1     -36.458  15.829  50.511  1.00  0.00    -0.273 NA
HETATM    8  C1  UNL     1     -38.284  14.586  49.392  1.00  0.00     0.066 A 
HETATM    9  C2  UNL     1     -39.560  12.940  48.739  1.00  0.00     0.025 A 
HETATM   10  C3  UNL     1     -37.734  14.182  49.857  1.00  0.00     0.066 A 
HETATM   11  C4  UNL     1     -38.225  15.404  49.300  1.00  0.00     0.066 A 
HETATM   12  C5  UNL     1     -40.168  12.525  48.366  1.00  0.00     0.009 A 
HETATM   13  C6  UNL     1     -37.125  14.596  50.230  1.00  0.00     0.074 A 
HETATM   14  C7  UNL     1     -37.616  15.818  49.673  1.00  0.00     0.074 A 
HETATM   15  C8  UNL     1     -37.066  15.414  50.138  1.00  0.00     0.074 A 
HETATM   16  C10 UNL     1     -39.070  11.718  49.296  1.00  0.00     0.009 A 
HETATM   17  C11 UNL     1     -41.326  12.515  47.529  1.00  0.00     0.002 A 
ENDROOT
BRANCH   9  18
HETATM   18  C9  UNL     1     -40.227  11.707  48.459  1.00  0.00     0.008 A 
HETATM   19  O4  UNL     1     -40.466  10.955  48.696  1.00  0.00     0.000 OA
HETATM   20  C12 UNL     1     -40.894  10.476  48.179  1.00  0.00     0.001 A 
HETATM   21  N4  UNL     1     -40.415  11.981  47.704  1.00  0.00     0.000 N 
ENDBRANCH   9  18
TORSDOF 28
ENDMDL
