MODEL 1
REMARK VINA RESULT:     361.3      0.000      0.000
REMARK  23 active torsions:
REMARK  status: ('A' for Active; 'I' for Inactive)
REMARK    1  A    between atoms: O1_2  and  C2_15 
REMARK    2  A    between atoms: O1_2  and  C5_18 
REMARK    3  A    between atoms: O2_3  and  N3_11 
REMARK    4  A    between atoms: O2_3  and  C3_16 
REMARK    5  A    between atoms: O3_4  and  C4_17 
REMARK    6  A    between atoms: O4_5  and  C4_17 
REMARK    7  A    between atoms: O6_7  and  O7_8 
REMARK    8  A    between atoms: O7_8  and  C5_18 
REMARK    9  A    between atoms: N1_9  and  C8_21 
REMARK   10  A    between atoms: N2_10  and  C6_19 
REMARK   11  A    between atoms: N2_10  and  C9_22 
REMARK   12  A    between atoms: N3_11  and  N4_12 
REMARK   13  A    between atoms: N4_12  and  C8_21 
REMARK   14  A    between atoms: N5_13  and  C8_21 
REMARK   15  A    between atoms: C1_14  and  C4_17 
REMARK   16  A    between atoms: C2_15  and  C4_17 
REMARK   17  A    between atoms: C2_15  and  C3_16 
REMARK   18  A    between atoms: C2_15  and  C5_18 
REMARK   19  A    between atoms: C4_17  and  C5_18 
REMARK   20  A    between atoms: C6_19  and  C7_20 
REMARK   21  A    between atoms: C6_19  and  C9_22 
REMARK   22  A    between atoms: C8_21  and  C9_22 
REMARK   23  A    between atoms: C8_21  and  C10_23 
ROOT
HETATM    1  P1  UNL     1     -40.784  11.170  48.438  1.00  0.00    -0.036 P 
HETATM    2  O4  UNL     1     -40.593  11.772  48.968  1.00  0.00     0.000 OA
HETATM    3  O5  UNL     1     -41.022  10.692  49.067  1.00  0.00     0.000 OA
HETATM    4  O6  UNL     1     -40.974  10.567  47.908  1.00  0.00     0.000 OA
HETATM    5  O7  UNL     1     -40.546  11.648  47.809  1.00  0.00     0.000 OA
HETATM    6  C5  UNL     1     -40.292  12.488  48.688  1.00  0.00     0.025 A 
ENDROOT
BRANCH   2   7
HETATM    7  C4  UNL     1     -40.102  13.091  49.218  1.00  0.00     0.005 A 
HETATM    8  O1  UNL     1     -39.313  12.871  49.320  1.00  0.00     0.000 OA
HETATM    9  C3  UNL     1     -38.876  13.552  49.479  1.00  0.00     0.004 A 
HETATM   10  C1  UNL     1     -39.395  14.194  49.476  1.00  0.00     0.001 A 
HETATM   11  N1  UNL     1     -38.064  13.587  49.617  1.00  0.00     0.000 N 
HETATM   12  C6  UNL     1     -37.631  14.265  49.776  1.00  0.00     0.030 A 
HETATM   13  C7  UNL     1     -37.548  12.949  49.620  1.00  0.00     0.018 A 
HETATM   14  N2  UNL     1     -36.795  13.231  49.780  1.00  0.00     0.000 N 
HETATM   15  C8  UNL     1     -36.843  14.044  49.877  1.00  0.00     0.063 A 
HETATM   16  N3  UNL     1     -37.848  15.058  49.842  1.00  0.00     0.000 N 
HETATM   17  C10 UNL     1     -37.278  15.630  50.009  1.00  0.00     0.033 A 
HETATM   18  N4  UNL     1     -36.490  15.409  50.111  1.00  0.00     0.000 N 
HETATM   19  C9  UNL     1     -36.272  14.615  50.044  1.00  0.00     0.074 A 
HETATM   20  N5  UNL     1     -35.483  14.394  50.145  1.00  0.00    -0.222 NA
HETATM   21  O2  UNL     1     -39.193  14.982  49.611  1.00  0.00     0.000 OA
HETATM   22  C2  UNL     1     -40.152  13.909  49.315  1.00  0.00     0.005 A 
HETATM   23  O3  UNL     1     -40.840  14.361  49.260  1.00  0.00     0.000 OA
ENDBRANCH   2   7
TORSDOF 23
ENDMDL
