MODEL 1
REMARK VINA RESULT:     494.6      0.000      0.000
REMARK WARNING: 32 MAX_TORS EXCEEDED!!!
REMARK  34 active torsions:
REMARK  status: ('A' for Active; 'I' for Inactive)
REMARK    1  A    between atoms: O1_1  and  C1_9 
REMARK    2  A    between atoms: O1_1  and  C2_10 
REMARK    3  A    between atoms: O1_1  and  C11_19 
REMARK    4  A    between atoms: O4_4  and  C13_21 
REMARK    5  A    between atoms: N1_6  and  C9_17 
REMARK    6  A    between atoms: N2_7  and  C2_10 
REMARK    7  A    between atoms: N2_7  and  C11_19 
REMARK    8  A    between atoms: N3_8  and  C9_17 
REMARK    9  A    between atoms: N3_8  and  C14_22 
REMARK   10  A    between atoms: C1_9  and  C7_15 
REMARK   11  A    between atoms: C1_9  and  C9_17 
REMARK   12  A    between atoms: C2_10  and  C9_17 
REMARK   13  A    between atoms: C2_10  and  C8_16 
REMARK   14  A    between atoms: C2_10  and  C12_20 
REMARK   15  A    between atoms: C3_11  and  C4_12 
REMARK   16  A    between atoms: C3_11  and  C5_13 
REMARK   17  A    between atoms: C4_12  and  C6_14 
REMARK   18  A    between atoms: C5_13  and  C7_15 
REMARK   19  A    between atoms: C5_13  and  C11_19 
REMARK   20  A    between atoms: C6_14  and  C8_16 
REMARK   21  A    between atoms: C6_14  and  C9_17 
REMARK   22  A    between atoms: C6_14  and  C10_18 
REMARK   23  A    between atoms: C6_14  and  C12_20 
REMARK   24  A    between atoms: C9_17  and  C11_19 
REMARK   25  A    between atoms: C12_20  and  C14_22 
REMARK   26  A    between atoms: C12_20  and  C16_24 
REMARK   27  A    between atoms: C13_21  and  C14_22 
REMARK   28  A    between atoms: C15_23  and  C22_30 
REMARK   29  A    between atoms: C16_24  and  C17_25 
REMARK   30  A    between atoms: C16_24  and  C20_28 
REMARK   31  A    between atoms: C17_25  and  C19_27 
REMARK   32  A    between atoms: C17_25  and  C22_30 
REMARK   33  A    between atoms: C19_27  and  C20_28 
REMARK   34  A    between atoms: C20_28  and  C22_30 
ROOT
HETATM    1  O1  UNL     1     -36.376  14.395  47.765  1.00  0.00     0.000 OA
HETATM    2  O2  UNL     1     -35.472  15.720  48.845  1.00  0.00    -0.361 OA
HETATM    3  O3  UNL     1     -35.973  14.809  47.865  1.00  0.00     0.000 OA
HETATM    4  N1  UNL     1     -37.695  13.974  49.466  1.00  0.00     0.000 N 
HETATM    5  N2  UNL     1     -37.127  14.248  48.935  1.00  0.00     0.000 N 
HETATM    6  C1  UNL     1     -36.570  14.863  49.161  1.00  0.00     0.099 A 
HETATM    7  C3  UNL     1     -37.746  14.295  50.261  1.00  0.00     0.007 A 
HETATM    8  C4  UNL     1     -38.270  13.395  49.350  1.00  0.00     0.003 A 
HETATM    9  C5  UNL     1     -36.605  15.196  49.953  1.00  0.00     0.050 A 
HETATM   10  C7  UNL     1     -37.198  14.910  50.507  1.00  0.00     0.030 A 
HETATM   11  C8  UNL     1     -38.419  12.946  48.674  1.00  0.00     0.005 A 
HETATM   12  C9  UNL     1     -36.993  14.010  48.155  1.00  0.00     0.052 A 
HETATM   13  C11 UNL     1     -36.005  15.131  48.624  1.00  0.00     0.117 A 
ENDROOT
BRANCH   1  14
HETATM   14  C2  UNL     1     -37.396  13.440  47.717  1.00  0.00     0.029 A 
HETATM   15  N3  UNL     1     -37.888  14.102  47.695  1.00  0.00     0.000 N 
HETATM   16  C10 UNL     1     -38.706  14.007  47.657  1.00  0.00     0.080 A 
HETATM   17  C6  UNL     1     -37.778  12.709  47.698  1.00  0.00     0.027 A 
HETATM   18  C12 UNL     1     -39.033  13.249  47.641  1.00  0.00     0.041 A 
HETATM   19  C14 UNL     1     -39.199  14.668  47.635  1.00  0.00     0.098 A 
HETATM   20  O4  UNL     1     -40.017  14.573  47.597  1.00  0.00     0.000 OA
HETATM   21  O5  UNL     1     -38.872  15.426  47.651  1.00  0.00    -0.365 OA
HETATM   22  C13 UNL     1     -39.852  13.154  47.603  1.00  0.00     0.041 A 
HETATM   23  C18 UNL     1     -40.509  15.235  47.576  1.00  0.00     0.053 A 
HETATM   24  C21 UNL     1     -41.328  15.140  47.538  1.00  0.00    -0.028 A 
HETATM   25  C15 UNL     1     -40.179  12.396  47.587  1.00  0.00     0.008 A 
HETATM   26  C16 UNL     1     -39.686  11.734  47.609  1.00  0.00     0.008 A 
HETATM   27  C17 UNL     1     -40.997  12.301  47.550  1.00  0.00     0.004 A 
HETATM   28  C19 UNL     1     -40.013  10.977  47.593  1.00  0.00     0.001 A 
HETATM   29  C20 UNL     1     -41.324  11.544  47.534  1.00  0.00     0.001 A 
HETATM   30  C22 UNL     1     -40.831  10.881  47.556  1.00  0.00     0.001 A 
ENDBRANCH   1  14
TORSDOF 34
ENDMDL
