MODEL 1
REMARK VINA RESULT:      44.5      0.000      0.000
REMARK  3 active torsions:
REMARK  status: ('A' for Active; 'I' for Inactive)
REMARK    1  A    between atoms: N1_4  and  C4_8 
REMARK    2  A    between atoms: C1_5  and  C4_8 
REMARK    3  A    between atoms: C2_6  and  C3_7 
ROOT
HETATM    1  S1  UNL     1     -40.787  15.706  49.622  1.00  0.00    -0.149 SA
HETATM    2  O1  UNL     1     -38.534  15.797  47.681  1.00  0.00    -0.289 OA
HETATM    3  O2  UNL     1     -37.368  15.757  48.507  1.00  0.00    -0.289 OA
HETATM    4  N1  UNL     1     -38.322  15.693  49.851  1.00  0.00    -0.173 NA
HETATM    5  C1  UNL     1     -39.488  15.733  49.026  1.00  0.00     0.191 A 
HETATM    6  C2  UNL     1     -38.666  15.729  49.102  1.00  0.00     0.239 A 
HETATM    7  C3  UNL     1     -39.965  15.702  49.699  1.00  0.00     0.131 A 
HETATM    8  C4  UNL     1     -38.190  15.761  48.430  1.00  0.00     0.273 A 
HETATM    9  C5  UNL     1     -41.263  15.674  50.294  1.00  0.00     0.068 A 
ENDROOT
TORSDOF 3
ENDMDL
