MODEL 1
REMARK VINA RESULT:      79.3      0.000      0.000
REMARK  27 active torsions:
REMARK  status: ('A' for Active; 'I' for Inactive)
REMARK    1  A    between atoms: O1_1  and  C1_6 
REMARK    2  A    between atoms: O1_1  and  C2_7 
REMARK    3  A    between atoms: O2_2  and  C1_6 
REMARK    4  A    between atoms: O2_2  and  C4_9 
REMARK    5  A    between atoms: O2_2  and  C8_13 
REMARK    6  A    between atoms: O3_3  and  N2_5 
REMARK    7  A    between atoms: N1_4  and  N2_5 
REMARK    8  A    between atoms: N1_4  and  C1_6 
REMARK    9  A    between atoms: N2_5  and  C11_16 
REMARK   10  A    between atoms: N2_5  and  C1_6 
REMARK   11  A    between atoms: C1_6  and  C6_11 
REMARK   12  A    between atoms: C1_6  and  C7_12 
REMARK   13  A    between atoms: C1_6  and  C11_16 
REMARK   14  A    between atoms: C2_7  and  C6_11 
REMARK   15  A    between atoms: C2_7  and  C7_12 
REMARK   16  A    between atoms: C2_7  and  C8_13 
REMARK   17  A    between atoms: C2_7  and  C9_14 
REMARK   18  A    between atoms: C3_8  and  C4_9 
REMARK   19  A    between atoms: C3_8  and  C8_13 
REMARK   20  A    between atoms: C4_9  and  C5_10 
REMARK   21  A    between atoms: C4_9  and  C6_11 
REMARK   22  A    between atoms: C4_9  and  C7_12 
REMARK   23  A    between atoms: C6_11  and  C7_12 
REMARK   24  A    between atoms: C6_11  and  C11_16 
REMARK   25  A    between atoms: C7_12  and  C8_13 
REMARK   26  A    between atoms: C7_12  and  C11_16 
REMARK   27  A    between atoms: C9_14  and  C10_15 
ROOT
HETATM    1  O1  UNL     1     -41.234  13.460  50.420  1.00  0.00     0.000 OA
HETATM    2  O3  UNL     1     -39.618  15.817  50.436  1.00  0.00     0.000 OA
HETATM    3  N1  UNL     1     -40.426  14.639  50.427  1.00  0.00     0.000 N 
HETATM    4  C6  UNL     1     -40.970  14.147  50.047  1.00  0.00     0.000 A 
HETATM    5  C11 UNL     1     -40.162  15.326  50.056  1.00  0.00     0.000 A 
ENDROOT
BRANCH   1   6
HETATM    6  C1  UNL     1     -41.248  14.344  49.297  1.00  0.00     0.000 A 
HETATM    7  C2  UNL     1     -41.255  13.527  49.179  1.00  0.00     0.000 A 
HETATM    8  C3  UNL     1     -41.270  13.221  48.412  1.00  0.00     0.000 A 
HETATM    9  C4  UNL     1     -41.263  14.037  48.531  1.00  0.00     0.000 A 
HETATM   10  C5  UNL     1     -41.276  12.404  48.295  1.00  0.00     0.000 A 
HETATM   11  C9  UNL     1     -41.268  11.894  48.943  1.00  0.00     0.000 A 
HETATM   12  C10 UNL     1     -41.291  12.098  47.528  1.00  0.00     0.000 A 
HETATM   13  C8  UNL     1     -41.272  14.548  47.882  1.00  0.00     0.000 A 
BRANCH   7  14
HETATM   14  C7  UNL     1     -41.250  15.109  48.991  1.00  0.00     0.000 A 
HETATM   15  O2  UNL     1     -41.309  15.229  48.177  1.00  0.00     0.000 OA
HETATM   16  N2  UNL     1     -41.204  15.757  49.500  1.00  0.00     0.000 N 
ENDBRANCH   7  14
ENDBRANCH   1   6
TORSDOF 27
ENDMDL
