MODEL 1
REMARK VINA RESULT:      85.3      0.000      0.000
REMARK  13 active torsions:
REMARK  status: ('A' for Active; 'I' for Inactive)
REMARK    1  A    between atoms: O2_2  and  C8_12 
REMARK    2  A    between atoms: N1_4  and  C4_8 
REMARK    3  A    between atoms: N1_4  and  C6_10 
REMARK    4  A    between atoms: C1_5  and  C6_10 
REMARK    5  A    between atoms: C2_6  and  C4_8 
REMARK    6  A    between atoms: C3_7  and  C9_13 
REMARK    7  A    between atoms: C4_8  and  C5_9 
REMARK    8  A    between atoms: C4_8  and  C8_12 
REMARK    9  A    between atoms: C4_8  and  C9_13 
REMARK   10  A    between atoms: C5_9  and  C7_11 
REMARK   11  A    between atoms: C5_9  and  C9_13 
REMARK   12  A    between atoms: C7_11  and  C8_12 
REMARK   13  A    between atoms: C8_12  and  C9_13 
ROOT
HETATM    1  O1  UNL     1     -41.323  15.189  50.250  1.00  0.00    -0.274 OA
HETATM    2  O2  UNL     1     -36.235  15.728  49.637  1.00  0.00     0.000 OA
HETATM    3  O3  UNL     1     -41.116  15.444  48.859  1.00  0.00    -0.274 OA
HETATM    4  N1  UNL     1     -39.696  15.284  50.509  1.00  0.00     0.078 N 
HETATM    5  C1  UNL     1     -39.489  15.539  49.119  1.00  0.00     0.277 A 
HETATM    6  C2  UNL     1     -40.000  15.387  49.750  1.00  0.00     0.309 A 
HETATM    7  C3  UNL     1     -38.676  15.586  49.248  1.00  0.00     0.114 A 
HETATM    8  C4  UNL     1     -38.373  15.482  50.009  1.00  0.00     0.182 A 
HETATM    9  C5  UNL     1     -38.166  15.737  48.618  1.00  0.00     0.071 A 
HETATM   10  C6  UNL     1     -40.813  15.340  49.620  1.00  0.00     0.388 A 
HETATM   11  C7  UNL     1     -37.559  15.530  50.138  1.00  0.00     0.043 A 
HETATM   12  C8  UNL     1     -37.353  15.785  48.748  1.00  0.00     0.043 A 
HETATM   13  C9  UNL     1     -37.049  15.681  49.508  1.00  0.00     0.043 A 
ENDROOT
TORSDOF 13
ENDMDL
