MODEL 1
REMARK VINA RESULT:      50.8      0.000      0.000
REMARK  13 active torsions:
REMARK  status: ('A' for Active; 'I' for Inactive)
REMARK    1  A    between atoms: C1_2  and  C7_8 
REMARK    2  A    between atoms: C2_3  and  C4_5 
REMARK    3  A    between atoms: C3_4  and  C4_5 
REMARK    4  A    between atoms: C3_4  and  C6_7 
REMARK    5  A    between atoms: C4_5  and  C5_6 
REMARK    6  A    between atoms: C4_5  and  C7_8 
REMARK    7  A    between atoms: C5_6  and  C11_12 
REMARK    8  A    between atoms: C7_8  and  C8_9 
REMARK    9  A    between atoms: C7_8  and  C10_11 
REMARK   10  A    between atoms: C8_9  and  C9_10 
REMARK   11  A    between atoms: C8_9  and  C11_12 
REMARK   12  A    between atoms: C9_10  and  C10_11 
REMARK   13  A    between atoms: C10_11  and  C11_12 
ROOT
HETATM    1  N1  UNL     1     -37.788  15.838  49.503  1.00  0.00    -0.012 N 
HETATM    2  C1  UNL     1     -38.495  15.588  49.847  1.00  0.00     0.177 A 
HETATM    3  C2  UNL     1     -39.202  15.338  50.191  1.00  0.00     0.077 A 
HETATM    4  C3  UNL     1     -38.084  15.367  50.528  1.00  0.00     0.215 A 
HETATM    5  C4  UNL     1     -38.904  15.809  49.166  1.00  0.00     0.173 A 
HETATM    6  C5  UNL     1     -39.909  15.404  49.774  1.00  0.00     0.048 A 
HETATM    7  C6  UNL     1     -37.080  15.771  49.920  1.00  0.00     0.242 A 
HETATM    8  C7  UNL     1     -39.912  15.721  49.012  1.00  0.00     0.048 A 
HETATM    9  C8  UNL     1     -40.617  15.154  50.119  1.00  0.00     0.011 A 
HETATM   10  C9  UNL     1     -40.621  15.787  48.595  1.00  0.00     0.007 A 
HETATM   11  C10 UNL     1     -41.325  15.221  49.701  1.00  0.00     0.007 A 
HETATM   12  C11 UNL     1     -41.327  15.537  48.939  1.00  0.00     0.007 A 
ENDROOT
TORSDOF 13
ENDMDL
