MODEL 1
REMARK VINA RESULT:     289.2      0.000      0.000
REMARK  27 active torsions:
REMARK  status: ('A' for Active; 'I' for Inactive)
REMARK    1  A    between atoms: O1_1  and  C13_18 
REMARK    2  A    between atoms: O2_2  and  C14_19 
REMARK    3  A    between atoms: N2_5  and  C12_17 
REMARK    4  A    between atoms: N2_5  and  C15_20 
REMARK    5  A    between atoms: C1_6  and  C4_9 
REMARK    6  A    between atoms: C1_6  and  C8_13 
REMARK    7  A    between atoms: C1_6  and  C11_16 
REMARK    8  A    between atoms: C2_7  and  C3_8 
REMARK    9  A    between atoms: C2_7  and  C13_18 
REMARK   10  A    between atoms: C3_8  and  C4_9 
REMARK   11  A    between atoms: C3_8  and  C5_10 
REMARK   12  A    between atoms: C3_8  and  C8_13 
REMARK   13  A    between atoms: C3_8  and  C11_16 
REMARK   14  A    between atoms: C4_9  and  C9_14 
REMARK   15  A    between atoms: C4_9  and  C12_17 
REMARK   16  A    between atoms: C5_10  and  C7_12 
REMARK   17  A    between atoms: C6_11  and  C8_13 
REMARK   18  A    between atoms: C6_11  and  C12_17 
REMARK   19  A    between atoms: C6_11  and  C14_19 
REMARK   20  A    between atoms: C7_12  and  C11_16 
REMARK   21  A    between atoms: C8_13  and  C9_14 
REMARK   22  A    between atoms: C8_13  and  C12_17 
REMARK   23  A    between atoms: C9_14  and  C13_18 
REMARK   24  A    between atoms: C9_14  and  C14_19 
REMARK   25  A    between atoms: C10_15  and  C11_16 
REMARK   26  A    between atoms: C12_17  and  C14_19 
REMARK   27  A    between atoms: C13_18  and  C16_21 
ROOT
HETATM    1  O1  UNL     1     -39.216  12.843  50.495  1.00  0.00     0.000 OA
HETATM    2  O2  UNL     1     -41.299  13.998  47.559  1.00  0.00     0.000 OA
HETATM    3  O3  UNL     1     -41.266  15.811  49.976  1.00  0.00    -0.359 OA
HETATM    4  N1  UNL     1     -38.511  11.398  50.123  1.00  0.00     0.000 N 
HETATM    5  N2  UNL     1     -41.049  14.722  49.027  1.00  0.00     0.000 N 
HETATM    6  C1  UNL     1     -38.998  11.773  49.573  1.00  0.00     0.001 A 
HETATM    7  C2  UNL     1     -39.351  12.496  49.759  1.00  0.00     0.006 A 
HETATM    8  C3  UNL     1     -39.134  11.427  48.837  1.00  0.00     0.001 A 
HETATM    9  C4  UNL     1     -39.838  12.871  49.209  1.00  0.00     0.008 A 
HETATM   10  C5  UNL     1     -38.160  10.676  49.937  1.00  0.00     0.000 A 
HETATM   11  C6  UNL     1     -40.190  13.594  49.396  1.00  0.00     0.024 A 
HETATM   12  C7  UNL     1     -38.781  10.704  48.650  1.00  0.00     0.000 A 
HETATM   13  C8  UNL     1     -39.972  12.524  48.473  1.00  0.00     0.004 A 
HETATM   14  C9  UNL     1     -40.677  13.969  48.846  1.00  0.00     0.025 A 
HETATM   15  C10 UNL     1     -37.673  10.300  50.487  1.00  0.00     0.000 A 
HETATM   16  C11 UNL     1     -38.294  10.328  49.200  1.00  0.00     0.000 A 
HETATM   17  C12 UNL     1     -40.812  13.622  48.109  1.00  0.00     0.005 A 
HETATM   18  C13 UNL     1     -40.041  13.945  50.165  1.00  0.00     0.046 A 
HETATM   19  C14 UNL     1     -40.459  12.900  47.923  1.00  0.00     0.005 A 
HETATM   20  C15 UNL     1     -40.405  14.697  50.366  1.00  0.00     0.117 A 
HETATM   21  C16 UNL     1     -40.912  15.088  49.793  1.00  0.00     0.117 A 
ENDROOT
TORSDOF 27
ENDMDL
