MODEL 1
REMARK VINA RESULT:      -0.6      0.000      0.000
REMARK  0 active torsions:
REMARK  status: ('A' for Active; 'I' for Inactive)
ROOT
HETATM    1 MG1  UNL     1     -40.291  15.835  49.393  1.00  0.00     0.000 Mg
HETATM    2  O1  UNL     1     -41.016  15.838  49.787  1.00  0.00     0.000 OA
ENDROOT
TORSDOF 0
ENDMDL
MODEL 2
REMARK VINA RESULT:      -0.4      1.510      1.510
REMARK  0 active torsions:
REMARK  status: ('A' for Active; 'I' for Inactive)
ROOT
HETATM    1 MG1  UNL     1     -39.009  15.830  49.794  1.00  0.00     0.000 Mg
HETATM    2  O1  UNL     1     -39.499  15.838  50.458  1.00  0.00     0.000 OA
ENDROOT
TORSDOF 0
ENDMDL
MODEL 3
REMARK VINA RESULT:       1.9      2.065      2.065
REMARK  0 active torsions:
REMARK  status: ('A' for Active; 'I' for Inactive)
ROOT
HETATM    1 MG1  UNL     1     -41.328  13.855  48.434  1.00  0.00     0.000 Mg
HETATM    2  O1  UNL     1     -41.326  14.463  48.992  1.00  0.00     0.000 OA
ENDROOT
TORSDOF 0
ENDMDL
