MODEL 1
REMARK VINA RESULT:       1.1      0.000      0.000
REMARK  0 active torsions:
REMARK  status: ('A' for Active; 'I' for Inactive)
ROOT
HETATM    1 NA1  UNL     1     -39.692  15.710  49.066  1.00  0.00     0.063 Na
HETATM    2  O1  UNL     1     -41.312  15.821  50.523  1.00  0.00    -0.176 OA
HETATM    3  O2  UNL     1     -40.096  15.837  49.773  1.00  0.00    -0.176 OA
HETATM    4  O3  UNL     1     -41.315  15.426  49.150  1.00  0.00    -0.176 OA
HETATM    5  C1  UNL     1     -40.908  15.694  49.816  1.00  0.00     0.467 A 
ENDROOT
TORSDOF 0
ENDMDL
MODEL 2
REMARK VINA RESULT:       2.1      0.855      1.176
REMARK  0 active torsions:
REMARK  status: ('A' for Active; 'I' for Inactive)
ROOT
HETATM    1 NA1  UNL     1     -41.097  15.469  48.816  1.00  0.00     0.063 Na
HETATM    2  O1  UNL     1     -39.786  15.830  50.523  1.00  0.00    -0.176 OA
HETATM    3  O2  UNL     1     -40.413  15.557  49.269  1.00  0.00    -0.176 OA
HETATM    4  O3  UNL     1     -41.211  15.838  50.421  1.00  0.00    -0.176 OA
HETATM    5  C1  UNL     1     -40.470  15.742  50.071  1.00  0.00     0.467 A 
ENDROOT
TORSDOF 0
ENDMDL
