MODEL 1
REMARK VINA RESULT:     264.7      0.000      0.000
REMARK  21 active torsions:
REMARK  status: ('A' for Active; 'I' for Inactive)
REMARK    1  A    between atoms: O1_1  and  C2_7 
REMARK    2  A    between atoms: O3_3  and  C5_10 
REMARK    3  A    between atoms: C1_6  and  C10_15 
REMARK    4  A    between atoms: C1_6  and  C14_19 
REMARK    5  A    between atoms: C2_7  and  C11_16 
REMARK    6  A    between atoms: C2_7  and  C13_18 
REMARK    7  A    between atoms: C3_8  and  C5_10 
REMARK    8  A    between atoms: C3_8  and  C9_14 
REMARK    9  A    between atoms: C4_9  and  C6_11 
REMARK   10  A    between atoms: C4_9  and  C12_17 
REMARK   11  A    between atoms: C5_10  and  C6_11 
REMARK   12  A    between atoms: C5_10  and  C7_12 
REMARK   13  A    between atoms: C5_10  and  C10_15 
REMARK   14  A    between atoms: C6_11  and  C8_13 
REMARK   15  A    between atoms: C7_12  and  C9_14 
REMARK   16  A    between atoms: C7_12  and  C14_19 
REMARK   17  A    between atoms: C8_13  and  C11_16 
REMARK   18  A    between atoms: C8_13  and  C13_18 
REMARK   19  A    between atoms: C9_14  and  C10_15 
REMARK   20  A    between atoms: C11_16  and  C12_17 
REMARK   21  A    between atoms: C12_17  and  C13_18 
ROOT
HETATM    1  O1  UNL     1     -38.462  14.317  49.217  1.00  0.00     0.000 OA
HETATM    2  O2  UNL     1     -39.467  13.435  48.710  1.00  0.00     0.000 OA
HETATM    3  O3  UNL     1     -38.658  15.731  49.158  1.00  0.00     0.000 OA
HETATM    4  O4  UNL     1     -37.068  12.369  49.839  1.00  0.00    -0.327 OA
HETATM    5  O5  UNL     1     -38.268  12.902  49.274  1.00  0.00    -0.327 OA
HETATM    6  C1  UNL     1     -37.728  14.432  49.573  1.00  0.00     0.081 A 
HETATM    7  C2  UNL     1     -39.662  14.850  48.652  1.00  0.00     0.001 A 
HETATM    8  C3  UNL     1     -37.263  13.784  49.781  1.00  0.00     0.117 A 
HETATM    9  C4  UNL     1     -39.932  14.085  48.503  1.00  0.00     0.001 A 
HETATM   10  C5  UNL     1     -37.458  15.198  49.723  1.00  0.00     0.053 A 
HETATM   11  C6  UNL     1     -38.928  14.966  49.009  1.00  0.00     0.012 A 
HETATM   12  C7  UNL     1     -36.528  13.899  50.138  1.00  0.00     0.088 A 
HETATM   13  C8  UNL     1     -40.127  15.499  48.444  1.00  0.00     0.001 A 
HETATM   14  C9  UNL     1     -36.723  15.314  50.080  1.00  0.00     0.057 A 
HETATM   15  C10 UNL     1     -36.259  14.664  50.287  1.00  0.00     0.057 A 
HETATM   16  C11 UNL     1     -40.667  13.969  48.145  1.00  0.00     0.000 A 
HETATM   17  C12 UNL     1     -40.861  15.383  48.088  1.00  0.00     0.000 A 
HETATM   18  C13 UNL     1     -41.131  14.618  47.938  1.00  0.00     0.000 A 
HETATM   19  C14 UNL     1     -37.532  13.018  49.632  1.00  0.00     0.187 A 
ENDROOT
TORSDOF 21
ENDMDL
