MODEL 1
REMARK VINA RESULT:      17.9      0.000      0.000
REMARK  0 active torsions:
REMARK  status: ('A' for Active; 'I' for Inactive)
ROOT
HETATM    1  O1  UNL     1     -37.929  15.835  50.156  1.00  0.00    -0.298 OA
HETATM    2  O2  UNL     1     -41.328  15.751  48.985  1.00  0.00    -0.298 OA
HETATM    3  O3  UNL     1     -38.360  15.809  48.794  1.00  0.00    -0.298 OA
HETATM    4  O4  UNL     1     -40.896  15.777  50.347  1.00  0.00    -0.298 OA
HETATM    5  C1  UNL     1     -39.324  15.802  49.848  1.00  0.00     0.298 A 
HETATM    6  C2  UNL     1     -39.932  15.783  49.292  1.00  0.00     0.298 A 
HETATM    7  C3  UNL     1     -38.537  15.815  49.600  1.00  0.00     0.298 A 
HETATM    8  C4  UNL     1     -40.718  15.770  49.541  1.00  0.00     0.298 A 
ENDROOT
TORSDOF 0
ENDMDL
