MODEL 1
REMARK VINA RESULT:     124.5      0.000      0.000
REMARK  15 active torsions:
REMARK  status: ('A' for Active; 'I' for Inactive)
REMARK    1  A    between atoms: C1_1  and  C7_8 
REMARK    2  A    between atoms: C2_2  and  C5_6 
REMARK    3  A    between atoms: C2_2  and  C9_13 
REMARK    4  A    between atoms: C3_3  and  O1_4 
REMARK    5  A    between atoms: C3_3  and  C4_5 
REMARK    6  A    between atoms: C3_3  and  C6_7 
REMARK    7  A    between atoms: C3_3  and  C7_8 
REMARK    8  A    between atoms: C3_3  and  O2_11 
REMARK    9  A    between atoms: C4_5  and  C5_6 
REMARK   10  A    between atoms: C5_6  and  C7_8 
REMARK   11  A    between atoms: C7_8  and  N1_9 
REMARK   12  A    between atoms: C7_8  and  C10_14 
REMARK   13  A    between atoms: C8_12  and  C10_14 
REMARK   14  A    between atoms: C9_13  and  C10_14 
REMARK   15  A    between atoms: C11_15  and  C12_16 
ROOT
HETATM    1  C1  UNL     1     -40.469  13.335  48.660  1.00  0.00     0.000 A 
HETATM    2  C2  UNL     1     -40.077  13.820  49.204  1.00  0.00     0.000 A 
HETATM    3  C3  UNL     1     -41.021  13.663  48.140  1.00  0.00     0.000 A 
HETATM    4  O1  UNL     1     -40.309  12.527  48.640  1.00  0.00     0.000 OA
HETATM    5  C4  UNL     1     -40.239  14.629  49.223  1.00  0.00     0.000 A 
HETATM    6  C5  UNL     1     -41.180  14.470  48.161  1.00  0.00     0.000 A 
HETATM    7  C6  UNL     1     -40.701  12.045  48.098  1.00  0.00     0.000 A 
HETATM    8  C7  UNL     1     -40.789  14.953  48.703  1.00  0.00     0.000 A 
HETATM    9  N1  UNL     1     -39.846  15.114  49.766  1.00  0.00     0.000 N 
HETATM   10  N2  UNL     1     -40.542  11.234  48.075  1.00  0.00     0.000 N 
HETATM   11  O2  UNL     1     -41.253  12.370  47.576  1.00  0.00     0.000 OA
HETATM   12  C8  UNL     1     -39.326  15.789  50.494  1.00  0.00     0.000 A 
HETATM   13  C9  UNL     1     -39.492  14.514  50.007  1.00  0.00     0.000 A 
HETATM   14  C10 UNL     1     -40.243  15.831  49.508  1.00  0.00     0.000 A 
HETATM   15  C11 UNL     1     -40.933  10.755  47.535  1.00  0.00     0.000 A 
HETATM   16  C12 UNL     1     -39.989  10.909  48.597  1.00  0.00     0.000 A 
ENDROOT
TORSDOF 15
ENDMDL
