MODEL 1
REMARK VINA RESULT:     450.9      0.000      0.000
REMARK WARNING: 32 MAX_TORS EXCEEDED!!!
REMARK  51 active torsions:
REMARK  status: ('A' for Active; 'I' for Inactive)
REMARK    1  A    between atoms: O1_1  and  C6_9 
REMARK    2  A    between atoms: O1_1  and  C13_16 
REMARK    3  A    between atoms: O2_2  and  C18_21 
REMARK    4  A    between atoms: O2_2  and  C19_22 
REMARK    5  A    between atoms: N1_3  and  C19_22 
REMARK    6  A    between atoms: C1_4  and  C7_10 
REMARK    7  A    between atoms: C1_4  and  C8_11 
REMARK    8  A    between atoms: C1_4  and  C11_14 
REMARK    9  A    between atoms: C2_5  and  C4_7 
REMARK   10  A    between atoms: C2_5  and  C8_11 
REMARK   11  A    between atoms: C2_5  and  C17_20 
REMARK   12  A    between atoms: C3_6  and  C6_9 
REMARK   13  A    between atoms: C3_6  and  C9_12 
REMARK   14  A    between atoms: C3_6  and  C12_15 
REMARK   15  A    between atoms: C3_6  and  C16_19 
REMARK   16  A    between atoms: C4_7  and  C6_9 
REMARK   17  A    between atoms: C4_7  and  C10_13 
REMARK   18  A    between atoms: C4_7  and  C14_17 
REMARK   19  A    between atoms: C5_8  and  C8_11 
REMARK   20  A    between atoms: C5_8  and  C10_13 
REMARK   21  A    between atoms: C5_8  and  C14_17 
REMARK   22  A    between atoms: C5_8  and  C20_23 
REMARK   23  A    between atoms: C6_9  and  C8_11 
REMARK   24  A    between atoms: C6_9  and  C7_10 
REMARK   25  A    between atoms: C6_9  and  C13_16 
REMARK   26  A    between atoms: C6_9  and  C16_19 
REMARK   27  A    between atoms: C7_10  and  C9_12 
REMARK   28  A    between atoms: C7_10  and  C13_16 
REMARK   29  A    between atoms: C8_11  and  C13_16 
REMARK   30  A    between atoms: C8_11  and  C15_18 
REMARK   31  A    between atoms: C8_11  and  C16_19 
REMARK   32  A    between atoms: C9_12  and  C11_14 
REMARK   33  A    between atoms: C10_13  and  C12_15 
REMARK   34  A    between atoms: C11_14  and  C17_20 
REMARK   35  A    between atoms: C12_15  and  C14_17 
REMARK   36  A    between atoms: C12_15  and  C15_18 
REMARK   37  A    between atoms: C12_15  and  C16_19 
REMARK   38  A    between atoms: C12_15  and  C19_22 
REMARK   39  A    between atoms: C12_15  and  C20_23 
REMARK   40  A    between atoms: C13_16  and  C17_20 
REMARK   41  A    between atoms: C14_17  and  C18_21 
REMARK   42  A    between atoms: C15_18  and  C16_19 
REMARK   43  A    between atoms: C15_18  and  C18_21 
REMARK   44  A    between atoms: C15_18  and  C20_23 
REMARK   45  A    between atoms: C15_18  and  C21_24 
REMARK   46  A    between atoms: C16_19  and  C19_22 
REMARK   47  A    between atoms: C18_21  and  C20_23 
REMARK   48  A    between atoms: C18_21  and  C19_22 
REMARK   49  A    between atoms: C19_22  and  C20_23 
REMARK   50  A    between atoms: C19_22  and  C21_24 
REMARK   51  A    between atoms: C20_23  and  C21_24 
ROOT
HETATM    1  O1  UNL     1     -36.671  11.613  48.626  1.00  0.00     0.000 OA
HETATM    2  C1  UNL     1     -38.486  12.118  48.262  1.00  0.00     0.001 A 
HETATM    3  C2  UNL     1     -37.705  12.102  48.540  1.00  0.00     0.001 A 
HETATM    4  C3  UNL     1     -38.979  12.755  48.463  1.00  0.00     0.008 A 
HETATM    5  C4  UNL     1     -38.713  13.351  48.919  1.00  0.00     0.011 A 
HETATM    6  C5  UNL     1     -39.195  13.957  49.105  1.00  0.00     0.044 A 
HETATM    7  C6  UNL     1     -37.427  12.724  49.015  1.00  0.00     0.003 A 
HETATM    8  C7  UNL     1     -37.349  11.414  48.258  1.00  0.00     0.000 A 
HETATM    9  C8  UNL     1     -37.934  13.353  49.206  1.00  0.00     0.009 A 
HETATM   10  C9  UNL     1     -38.607  11.438  47.809  1.00  0.00     0.000 A 
HETATM   11  C10 UNL     1     -39.729  12.764  48.193  1.00  0.00     0.007 A 
HETATM   12  C11 UNL     1     -37.905  11.005  47.807  1.00  0.00     0.000 A 
HETATM   13  C12 UNL     1     -39.945  13.966  48.835  1.00  0.00     0.046 A 
HETATM   14  C13 UNL     1     -36.954  12.088  48.807  1.00  0.00     0.000 A 
HETATM   15  C14 UNL     1     -40.212  13.370  48.378  1.00  0.00     0.010 A 
HETATM   16  C15 UNL     1     -38.906  14.572  49.581  1.00  0.00     0.070 A 
HETATM   17  C16 UNL     1     -38.447  13.948  49.375  1.00  0.00     0.029 A 
HETATM   18  C17 UNL     1     -36.813  10.843  48.112  1.00  0.00     0.000 A 
HETATM   19  C18 UNL     1     -40.458  14.592  49.022  1.00  0.00     0.055 A 
HETATM   20  C19 UNL     1     -39.405  15.206  49.778  1.00  0.00     0.162 A 
HETATM   21  C22 UNL     1     -36.275  10.272  47.967  1.00  0.00     0.000 A 
ENDROOT
BRANCH   6  22
HETATM   22  C20 UNL     1     -40.186  15.216  49.496  1.00  0.00     0.178 A 
HETATM   23  O2  UNL     1     -40.772  15.727  49.770  1.00  0.00     0.000 OA
HETATM   24  N1  UNL     1     -41.322  15.283  50.196  1.00  0.00     0.125 N 
HETATM   25  C21 UNL     1     -41.077  14.495  50.186  1.00  0.00     0.241 A 
ENDBRANCH   6  22
TORSDOF 51
ENDMDL
