MODEL 1
REMARK VINA RESULT:     186.2      0.000      0.000
REMARK  17 active torsions:
REMARK  status: ('A' for Active; 'I' for Inactive)
REMARK    1  A    between atoms: CL2_2  and  C12_17 
REMARK    2  A    between atoms: N1_4  and  C3_8 
REMARK    3  A    between atoms: C2_7  and  C6_11 
REMARK    4  A    between atoms: C2_7  and  C7_12 
REMARK    5  A    between atoms: C2_7  and  C8_13 
REMARK    6  A    between atoms: C4_9  and  C6_11 
REMARK    7  A    between atoms: C5_10  and  C6_11 
REMARK    8  A    between atoms: C7_12  and  C10_15 
REMARK    9  A    between atoms: C7_12  and  C11_16 
REMARK   10  A    between atoms: C7_12  and  C12_17 
REMARK   11  A    between atoms: C8_13  and  C9_14 
REMARK   12  A    between atoms: C8_13  and  C10_15 
REMARK   13  A    between atoms: C8_13  and  C12_17 
REMARK   14  A    between atoms: C9_14  and  C11_16 
REMARK   15  A    between atoms: C9_14  and  C12_17 
REMARK   16  A    between atoms: C10_15  and  C11_16 
REMARK   17  A    between atoms: C11_16  and  C12_17 
ROOT
HETATM    1 CL1  UNL     1     -35.562  14.615  50.358  1.00  0.00    -0.236 Cl
HETATM    2 CL2  UNL     1     -37.262  12.320  50.403  1.00  0.00    -0.237 Cl
HETATM    3  O1  UNL     1     -38.303  15.753  50.171  1.00  0.00     0.000 OA
HETATM    4  N1  UNL     1     -39.815  15.095  50.137  1.00  0.00     0.000 N 
HETATM    5  N2  UNL     1     -35.750  12.978  50.437  1.00  0.00     0.000 N 
HETATM    6  C1  UNL     1     -40.572  14.766  50.119  1.00  0.00     0.001 A 
HETATM    7  C2  UNL     1     -39.153  14.605  50.193  1.00  0.00     0.019 A 
HETATM    8  C3  UNL     1     -38.398  14.935  50.210  1.00  0.00     0.032 A 
HETATM    9  C4  UNL     1     -41.328  14.436  50.102  1.00  0.00     0.000 A 
HETATM   10  C5  UNL     1     -40.899  15.520  50.064  1.00  0.00     0.000 A 
HETATM   11  C6  UNL     1     -40.244  14.010  50.175  1.00  0.00     0.001 A 
HETATM   12  C7  UNL     1     -37.736  14.445  50.267  1.00  0.00     0.059 A 
HETATM   13  C8  UNL     1     -37.830  13.627  50.306  1.00  0.00     0.062 A 
HETATM   14  C9  UNL     1     -36.979  14.775  50.284  1.00  0.00     0.069 A 
HETATM   15  C10 UNL     1     -36.317  14.286  50.341  1.00  0.00     0.076 A 
HETATM   16  C11 UNL     1     -37.168  13.138  50.363  1.00  0.00     0.076 A 
HETATM   17  C12 UNL     1     -36.412  13.467  50.380  1.00  0.00     0.078 A 
ENDROOT
TORSDOF 17
ENDMDL
