MODEL 1
REMARK VINA RESULT:      84.4      0.000      0.000
REMARK  18 active torsions:
REMARK  status: ('A' for Active; 'I' for Inactive)
REMARK    1  A    between atoms: O3_3  and  C6_11 
REMARK    2  A    between atoms: N1_4  and  C4_9 
REMARK    3  A    between atoms: N1_4  and  C8_13 
REMARK    4  A    between atoms: N2_5  and  C1_6 
REMARK    5  A    between atoms: C1_6  and  C3_8 
REMARK    6  A    between atoms: C1_6  and  C4_9 
REMARK    7  A    between atoms: C1_6  and  C5_10 
REMARK    8  A    between atoms: C1_6  and  C7_12 
REMARK    9  A    between atoms: C2_7  and  C3_8 
REMARK   10  A    between atoms: C2_7  and  C5_10 
REMARK   11  A    between atoms: C2_7  and  C7_12 
REMARK   12  A    between atoms: C3_8  and  C4_9 
REMARK   13  A    between atoms: C3_8  and  C6_11 
REMARK   14  A    between atoms: C3_8  and  C7_12 
REMARK   15  A    between atoms: C4_9  and  C5_10 
REMARK   16  A    between atoms: C5_10  and  C7_12 
REMARK   17  A    between atoms: C6_11  and  C9_14 
REMARK   18  A    between atoms: C8_13  and  C9_14 
ROOT
HETATM    1  O1  UNL     1     -41.328  12.371  47.536  1.00  0.00     0.000 OA
HETATM    2  N1  UNL     1     -41.327  12.245  49.187  1.00  0.00     0.000 N 
HETATM    3  C1  UNL     1     -41.233  13.705  49.261  1.00  0.00     0.024 A 
HETATM    4  C2  UNL     1     -41.280  13.015  48.810  1.00  0.00     0.024 A 
HETATM    5  C4  UNL     1     -41.281  13.060  47.987  1.00  0.00     0.026 A 
HETATM    6  C6  UNL     1     -41.230  13.671  50.119  1.00  0.00     0.022 A 
HETATM    7  C7  UNL     1     -41.236  13.794  47.613  1.00  0.00     0.026 A 
HETATM    8  C8  UNL     1     -41.277  12.910  50.513  1.00  0.00     0.004 A 
HETATM    9  C9  UNL     1     -41.326  12.192  50.044  1.00  0.00     0.004 A 
ENDROOT
BRANCH   5  10
HETATM   10  C3  UNL     1     -41.188  14.440  48.887  1.00  0.00     0.074 A 
HETATM   11  N2  UNL     1     -41.141  15.128  49.337  1.00  0.00     0.000 N 
HETATM   12  O2  UNL     1     -40.909  15.837  48.985  1.00  0.00    -0.233 OA
HETATM   13  O3  UNL     1     -41.327  15.110  50.142  1.00  0.00     0.000 OA
HETATM   14  C5  UNL     1     -41.002  14.458  48.084  1.00  0.00     0.026 A 
ENDBRANCH   5  10
TORSDOF 18
ENDMDL
