MODEL 1
REMARK VINA RESULT:     212.2      0.000      0.000
REMARK  13 active torsions:
REMARK  status: ('A' for Active; 'I' for Inactive)
REMARK    1  A    between atoms: S1_1  and  S2_2 
REMARK    2  A    between atoms: S1_1  and  C6_13 
REMARK    3  A    between atoms: S2_2  and  C9_16 
REMARK    4  A    between atoms: O1_3  and  C1_8 
REMARK    5  A    between atoms: O2_4  and  C3_10 
REMARK    6  A    between atoms: O2_4  and  C6_13 
REMARK    7  A    between atoms: N1_7  and  C1_8 
REMARK    8  A    between atoms: N1_7  and  C8_15 
REMARK    9  A    between atoms: C2_9  and  C3_10 
REMARK   10  A    between atoms: C3_10  and  C5_12 
REMARK   11  A    between atoms: C5_12  and  C7_14 
REMARK   12  A    between atoms: C7_14  and  C10_17 
REMARK   13  A    between atoms: C9_16  and  C10_17 
ROOT
HETATM    1  S1  UNL     1     -38.923  14.583  49.409  1.00  0.00    -0.203 SA
HETATM    2  S2  UNL     1     -40.602  14.744  49.761  1.00  0.00    -0.205 SA
HETATM    3  O1  UNL     1     -38.352  13.352  48.469  1.00  0.00     0.000 OA
HETATM    4  O2  UNL     1     -38.686  15.754  50.192  1.00  0.00     0.000 OA
HETATM    5  O3  UNL     1     -35.644  12.560  47.530  1.00  0.00    -0.301 OA
HETATM    6  O4  UNL     1     -35.406  13.732  48.313  1.00  0.00    -0.301 OA
HETATM    7  N1  UNL     1     -37.022  13.850  48.626  1.00  0.00     0.000 N 
HETATM    8  C1  UNL     1     -38.115  14.524  49.252  1.00  0.00     0.055 A 
HETATM    9  C2  UNL     1     -37.830  13.909  48.783  1.00  0.00     0.090 A 
HETATM   10  C3  UNL     1     -37.592  15.080  49.566  1.00  0.00     0.055 A 
HETATM   11  C4  UNL     1     -36.737  13.234  48.156  1.00  0.00     0.252 A 
HETATM   12  C5  UNL     1     -39.209  15.198  49.879  1.00  0.00     0.053 A 
HETATM   13  C6  UNL     1     -40.016  15.256  50.034  1.00  0.00     0.052 A 
HETATM   14  C7  UNL     1     -40.380  15.838  50.492  1.00  0.00     0.056 A 
HETATM   15  C8  UNL     1     -35.928  13.175  48.000  1.00  0.00     0.294 A 
HETATM   16  C9  UNL     1     -41.191  15.685  50.501  1.00  0.00     0.052 A 
HETATM   17  C10 UNL     1     -41.328  15.009  50.049  1.00  0.00     0.052 A 
ENDROOT
TORSDOF 13
ENDMDL
