MODEL 1
REMARK VINA RESULT:     135.5      0.000      0.000
REMARK  17 active torsions:
REMARK  status: ('A' for Active; 'I' for Inactive)
REMARK    1  A    between atoms: N1_2  and  C2_6 
REMARK    2  A    between atoms: N2_3  and  C2_6 
REMARK    3  A    between atoms: N3_4  and  C3_7 
REMARK    4  A    between atoms: C1_5  and  C3_7 
REMARK    5  A    between atoms: C1_5  and  C6_10 
REMARK    6  A    between atoms: C2_6  and  C5_9 
REMARK    7  A    between atoms: C3_7  and  C4_8 
REMARK    8  A    between atoms: C4_8  and  C13_17 
REMARK    9  A    between atoms: C5_9  and  C7_11 
REMARK   10  A    between atoms: C6_10  and  C10_14 
REMARK   11  A    between atoms: C7_11  and  C8_12 
REMARK   12  A    between atoms: C9_13  and  C10_14 
REMARK   13  A    between atoms: C9_13  and  C12_16 
REMARK   14  A    between atoms: C10_14  and  C11_15 
REMARK   15  A    between atoms: C10_14  and  C13_17 
REMARK   16  A    between atoms: C11_15  and  C12_16 
REMARK   17  A    between atoms: C12_16  and  C13_17 
ROOT
HETATM    1  O1  UNL     1     -41.189  12.956  47.578  1.00  0.00    -0.363 OA
HETATM    2  N1  UNL     1     -41.285  12.986  49.710  1.00  0.00     0.000 N 
HETATM    3  N2  UNL     1     -41.254  13.378  48.985  1.00  0.00     0.000 N 
HETATM    4  N3  UNL     1     -41.216  11.338  48.355  1.00  0.00     0.000 N 
HETATM    5  C1  UNL     1     -41.274  12.174  49.563  1.00  0.00     0.048 A 
HETATM    6  C2  UNL     1     -41.237  12.064  48.746  1.00  0.00     0.080 A 
HETATM    7  C3  UNL     1     -41.225  12.808  48.389  1.00  0.00     0.113 A 
HETATM    8  C4  UNL     1     -41.254  14.195  48.875  1.00  0.00     0.021 A 
HETATM    9  C5  UNL     1     -41.297  11.578  50.132  1.00  0.00     0.030 A 
HETATM   10  C6  UNL     1     -41.320  13.344  50.453  1.00  0.00     0.005 A 
HETATM   11  C7  UNL     1     -41.232  10.636  48.788  1.00  0.00     0.028 A 
HETATM   12  C8  UNL     1     -41.179  11.314  47.531  1.00  0.00     0.028 A 
HETATM   13  C9  UNL     1     -41.221  14.508  48.112  1.00  0.00     0.002 A 
HETATM   14  C10 UNL     1     -41.285  14.699  49.527  1.00  0.00     0.002 A 
HETATM   15  C11 UNL     1     -41.220  15.326  48.002  1.00  0.00     0.002 A 
HETATM   16  C12 UNL     1     -41.285  15.517  49.417  1.00  0.00     0.002 A 
HETATM   17  C13 UNL     1     -41.252  15.831  48.655  1.00  0.00     0.002 A 
ENDROOT
TORSDOF 17
ENDMDL
