MODEL 1
REMARK VINA RESULT:     100.7      0.000      0.000
REMARK  19 active torsions:
REMARK  status: ('A' for Active; 'I' for Inactive)
REMARK    1  A    between atoms: O1_1  and  C5_9 
REMARK    2  A    between atoms: N1_2  and  C5_9 
REMARK    3  A    between atoms: N2_3  and  C6_10 
REMARK    4  A    between atoms: N3_4  and  C8_12 
REMARK    5  A    between atoms: C1_5  and  C5_9 
REMARK    6  A    between atoms: C1_5  and  C6_10 
REMARK    7  A    between atoms: C2_6  and  C4_8 
REMARK    8  A    between atoms: C2_6  and  C9_13 
REMARK    9  A    between atoms: C2_6  and  C10_14 
REMARK   10  A    between atoms: C3_7  and  C4_8 
REMARK   11  A    between atoms: C3_7  and  C6_10 
REMARK   12  A    between atoms: C3_7  and  C7_11 
REMARK   13  A    between atoms: C4_8  and  C5_9 
REMARK   14  A    between atoms: C4_8  and  C8_12 
REMARK   15  A    between atoms: C5_9  and  C6_10 
REMARK   16  A    between atoms: C7_11  and  C8_12 
REMARK   17  A    between atoms: C7_11  and  C10_14 
REMARK   18  A    between atoms: C8_12  and  C10_14 
REMARK   19  A    between atoms: C8_12  and  C9_13 
ROOT
HETATM    1  O1  UNL     1     -40.878  11.275  47.987  1.00  0.00     0.000 OA
HETATM    2  N1  UNL     1     -40.984  12.694  47.854  1.00  0.00     0.000 N 
HETATM    3  N2  UNL     1     -40.966  11.423  49.628  1.00  0.00    -0.276 NA
HETATM    4  N3  UNL     1     -41.327  15.753  50.050  1.00  0.00    -0.012 N 
HETATM    5  C1  UNL     1     -41.103  13.514  49.019  1.00  0.00     0.086 A 
HETATM    6  C2  UNL     1     -41.178  14.260  49.362  1.00  0.00     0.113 A 
HETATM    7  C3  UNL     1     -41.072  12.841  49.495  1.00  0.00     0.076 A 
HETATM    8  C4  UNL     1     -41.059  13.441  48.198  1.00  0.00     0.070 A 
HETATM    9  C5  UNL     1     -40.997  12.096  49.152  1.00  0.00     0.067 A 
HETATM   10  C6  UNL     1     -40.953  12.022  48.331  1.00  0.00     0.067 A 
HETATM   11  C7  UNL     1     -41.222  14.334  50.183  1.00  0.00     0.189 A 
HETATM   12  C8  UNL     1     -41.209  14.932  48.886  1.00  0.00     0.184 A 
HETATM   13  C9  UNL     1     -41.296  15.080  50.527  1.00  0.00     0.218 A 
HETATM   14  C10 UNL     1     -41.283  15.679  49.229  1.00  0.00     0.218 A 
ENDROOT
TORSDOF 19
ENDMDL
