MODEL 1
REMARK VINA RESULT:     157.0      0.000      0.000
REMARK  23 active torsions:
REMARK  status: ('A' for Active; 'I' for Inactive)
REMARK    1  A    between atoms: O1_1  and  C8_11 
REMARK    2  A    between atoms: C1_4  and  C3_6 
REMARK    3  A    between atoms: C1_4  and  C6_9 
REMARK    4  A    between atoms: C1_4  and  C7_10 
REMARK    5  A    between atoms: C1_4  and  C10_13 
REMARK    6  A    between atoms: C2_5  and  C4_7 
REMARK    7  A    between atoms: C3_6  and  C5_8 
REMARK    8  A    between atoms: C3_6  and  C13_16 
REMARK    9  A    between atoms: C4_7  and  C5_8 
REMARK   10  A    between atoms: C4_7  and  C6_9 
REMARK   11  A    between atoms: C4_7  and  C8_11 
REMARK   12  A    between atoms: C5_8  and  C6_9 
REMARK   13  A    between atoms: C5_8  and  C7_10 
REMARK   14  A    between atoms: C5_8  and  C10_13 
REMARK   15  A    between atoms: C6_9  and  C8_11 
REMARK   16  A    between atoms: C7_10  and  C8_11 
REMARK   17  A    between atoms: C8_11  and  C14_17 
REMARK   18  A    between atoms: C9_12  and  C10_13 
REMARK   19  A    between atoms: C9_12  and  C12_15 
REMARK   20  A    between atoms: C10_13  and  C11_14 
REMARK   21  A    between atoms: C10_13  and  C13_16 
REMARK   22  A    between atoms: C11_14  and  C12_15 
REMARK   23  A    between atoms: C12_15  and  C13_16 
ROOT
HETATM    1  O1  UNL     1     -41.101  15.452  48.344  1.00  0.00     0.000 OA
HETATM    2  O2  UNL     1     -40.928  13.573  50.491  1.00  0.00     0.000 OA
HETATM    3  O3  UNL     1     -41.003  12.171  50.221  1.00  0.00     0.000 OA
HETATM    4  C1  UNL     1     -41.090  13.111  49.148  1.00  0.00     0.000 A 
HETATM    5  C2  UNL     1     -41.086  12.331  49.416  1.00  0.00     0.000 A 
HETATM    6  C3  UNL     1     -41.165  11.709  48.879  1.00  0.00     0.000 A 
HETATM    7  C4  UNL     1     -41.011  13.732  49.685  1.00  0.00     0.000 A 
HETATM    8  C5  UNL     1     -41.173  13.270  48.342  1.00  0.00     0.000 A 
HETATM    9  C6  UNL     1     -41.098  14.672  48.612  1.00  0.00     0.000 A 
HETATM   10  C7  UNL     1     -41.015  14.512  49.417  1.00  0.00     0.000 A 
HETATM   11  C8  UNL     1     -41.177  14.050  48.074  1.00  0.00     0.000 A 
HETATM   12  C9  UNL     1     -41.161  10.929  49.147  1.00  0.00     0.000 A 
HETATM   13  C10 UNL     1     -41.248  11.869  48.074  1.00  0.00     0.000 A 
HETATM   14  C11 UNL     1     -41.240  10.309  48.610  1.00  0.00     0.000 A 
HETATM   15  C12 UNL     1     -41.327  11.247  47.537  1.00  0.00     0.000 A 
HETATM   16  C13 UNL     1     -41.323  10.467  47.805  1.00  0.00     0.000 A 
HETATM   17  C14 UNL     1     -41.184  15.610  47.538  1.00  0.00     0.000 A 
ENDROOT
TORSDOF 23
ENDMDL
