MODEL 1
REMARK VINA RESULT:     420.1      0.000      0.000
REMARK  31 active torsions:
REMARK  status: ('A' for Active; 'I' for Inactive)
REMARK    1  A    between atoms: C1_3  and  C15_17 
REMARK    2  A    between atoms: C2_4  and  C3_5 
REMARK    3  A    between atoms: C2_4  and  C5_7 
REMARK    4  A    between atoms: C2_4  and  C15_17 
REMARK    5  A    between atoms: C3_5  and  C4_6 
REMARK    6  A    between atoms: C4_6  and  C5_7 
REMARK    7  A    between atoms: C4_6  and  C10_12 
REMARK    8  A    between atoms: C4_6  and  C13_15 
REMARK    9  A    between atoms: C5_7  and  C9_11 
REMARK   10  A    between atoms: C5_7  and  C12_14 
REMARK   11  A    between atoms: C6_8  and  C8_10 
REMARK   12  A    between atoms: C6_8  and  C11_13 
REMARK   13  A    between atoms: C6_8  and  C14_16 
REMARK   14  A    between atoms: C7_9  and  C8_10 
REMARK   15  A    between atoms: C7_9  and  C14_16 
REMARK   16  A    between atoms: C7_9  and  C16_18 
REMARK   17  A    between atoms: C8_10  and  C22_24 
REMARK   18  A    between atoms: C9_11  and  C10_12 
REMARK   19  A    between atoms: C9_11  and  C13_15 
REMARK   20  A    between atoms: C10_12  and  C12_14 
REMARK   21  A    between atoms: C12_14  and  C13_15 
REMARK   22  A    between atoms: C14_16  and  C15_17 
REMARK   23  A    between atoms: C14_16  and  C19_21 
REMARK   24  A    between atoms: C15_17  and  C18_20 
REMARK   25  A    between atoms: C15_17  and  C22_24 
REMARK   26  A    between atoms: C16_18  and  C17_19 
REMARK   27  A    between atoms: C16_18  and  C21_23 
REMARK   28  A    between atoms: C17_19  and  C20_22 
REMARK   29  A    between atoms: C18_20  and  C19_21 
REMARK   30  A    between atoms: C19_21  and  C22_24 
REMARK   31  A    between atoms: C20_22  and  C21_23 
ROOT
HETATM    1  N1  UNL     1     -38.469  12.263  49.203  1.00  0.00     0.000 N 
HETATM    2  N2  UNL     1     -40.068  14.629  49.107  1.00  0.00     0.000 N 
HETATM    3  C1  UNL     1     -37.786  11.872  49.451  1.00  0.00     0.000 A 
HETATM    4  C2  UNL     1     -37.596  11.089  49.295  1.00  0.00     0.000 A 
HETATM    5  C3  UNL     1     -37.179  12.198  49.895  1.00  0.00     0.000 A 
HETATM    6  C4  UNL     1     -36.871  10.929  49.643  1.00  0.00     0.000 A 
HETATM    7  C5  UNL     1     -36.612  11.617  50.016  1.00  0.00     0.000 A 
HETATM    8  C6  UNL     1     -38.586  13.056  49.403  1.00  0.00     0.000 A 
HETATM    9  C7  UNL     1     -39.269  13.447  49.155  1.00  0.00     0.000 A 
HETATM   10  C8  UNL     1     -39.035  11.862  48.756  1.00  0.00     0.000 A 
HETATM   11  C9  UNL     1     -36.410  10.246  49.671  1.00  0.00     0.000 A 
HETATM   12  C10 UNL     1     -35.891  11.623  50.416  1.00  0.00     0.000 A 
HETATM   13  C11 UNL     1     -39.385  14.238  49.354  1.00  0.00     0.000 A 
HETATM   14  C12 UNL     1     -35.688  10.252  50.072  1.00  0.00     0.000 A 
HETATM   15  C13 UNL     1     -35.429  10.940  50.444  1.00  0.00     0.000 A 
HETATM   16  C14 UNL     1     -39.718  12.253  48.509  1.00  0.00     0.000 A 
HETATM   17  C15 UNL     1     -38.918  11.070  48.557  1.00  0.00     0.000 A 
HETATM   18  C16 UNL     1     -40.634  14.229  48.660  1.00  0.00     0.000 A 
HETATM   19  C17 UNL     1     -40.186  15.421  49.306  1.00  0.00     0.000 A 
HETATM   20  C18 UNL     1     -40.284  11.852  48.062  1.00  0.00     0.000 A 
HETATM   21  C19 UNL     1     -39.484  10.670  48.111  1.00  0.00     0.000 A 
HETATM   22  C20 UNL     1     -41.317  14.620  48.413  1.00  0.00     0.000 A 
HETATM   23  C21 UNL     1     -40.868  15.812  49.058  1.00  0.00     0.000 A 
HETATM   24  C22 UNL     1     -40.167  11.061  47.863  1.00  0.00     0.000 A 
ENDROOT
TORSDOF 31
ENDMDL
MODEL 2
REMARK VINA RESULT:     421.3      1.428      5.101
REMARK  31 active torsions:
REMARK  status: ('A' for Active; 'I' for Inactive)
REMARK    1  A    between atoms: C1_3  and  C15_17 
REMARK    2  A    between atoms: C2_4  and  C3_5 
REMARK    3  A    between atoms: C2_4  and  C5_7 
REMARK    4  A    between atoms: C2_4  and  C15_17 
REMARK    5  A    between atoms: C3_5  and  C4_6 
REMARK    6  A    between atoms: C4_6  and  C5_7 
REMARK    7  A    between atoms: C4_6  and  C10_12 
REMARK    8  A    between atoms: C4_6  and  C13_15 
REMARK    9  A    between atoms: C5_7  and  C9_11 
REMARK   10  A    between atoms: C5_7  and  C12_14 
REMARK   11  A    between atoms: C6_8  and  C8_10 
REMARK   12  A    between atoms: C6_8  and  C11_13 
REMARK   13  A    between atoms: C6_8  and  C14_16 
REMARK   14  A    between atoms: C7_9  and  C8_10 
REMARK   15  A    between atoms: C7_9  and  C14_16 
REMARK   16  A    between atoms: C7_9  and  C16_18 
REMARK   17  A    between atoms: C8_10  and  C22_24 
REMARK   18  A    between atoms: C9_11  and  C10_12 
REMARK   19  A    between atoms: C9_11  and  C13_15 
REMARK   20  A    between atoms: C10_12  and  C12_14 
REMARK   21  A    between atoms: C12_14  and  C13_15 
REMARK   22  A    between atoms: C14_16  and  C15_17 
REMARK   23  A    between atoms: C14_16  and  C19_21 
REMARK   24  A    between atoms: C15_17  and  C18_20 
REMARK   25  A    between atoms: C15_17  and  C22_24 
REMARK   26  A    between atoms: C16_18  and  C17_19 
REMARK   27  A    between atoms: C16_18  and  C21_23 
REMARK   28  A    between atoms: C17_19  and  C20_22 
REMARK   29  A    between atoms: C18_20  and  C19_21 
REMARK   30  A    between atoms: C19_21  and  C22_24 
REMARK   31  A    between atoms: C20_22  and  C21_23 
ROOT
HETATM    1  N1  UNL     1     -38.216  13.791  49.030  1.00  0.00     0.000 N 
HETATM    2  N2  UNL     1     -36.673  11.493  49.741  1.00  0.00     0.000 N 
HETATM    3  C1  UNL     1     -38.899  14.120  48.704  1.00  0.00     0.000 A 
HETATM    4  C2  UNL     1     -39.062  14.921  48.638  1.00  0.00     0.000 A 
HETATM    5  C3  UNL     1     -39.532  13.703  48.391  1.00  0.00     0.000 A 
HETATM    6  C4  UNL     1     -39.798  15.001  48.283  1.00  0.00     0.000 A 
HETATM    7  C5  UNL     1     -40.089  14.246  48.130  1.00  0.00     0.000 A 
HETATM    8  C6  UNL     1     -38.127  12.970  49.060  1.00  0.00     0.000 A 
HETATM    9  C7  UNL     1     -37.444  12.641  49.385  1.00  0.00     0.000 A 
HETATM   10  C8  UNL     1     -37.622  14.281  49.326  1.00  0.00     0.000 A 
HETATM   11  C9  UNL     1     -40.243  15.665  48.078  1.00  0.00     0.000 A 
HETATM   12  C10 UNL     1     -40.826  14.152  47.771  1.00  0.00     0.000 A 
HETATM   13  C11 UNL     1     -37.355  11.822  49.415  1.00  0.00     0.000 A 
HETATM   14  C12 UNL     1     -40.981  15.572  47.719  1.00  0.00     0.000 A 
HETATM   15  C13 UNL     1     -41.272  14.816  47.566  1.00  0.00     0.000 A 
HETATM   16  C14 UNL     1     -36.939  13.952  49.652  1.00  0.00     0.000 A 
HETATM   17  C15 UNL     1     -37.711  15.101  49.296  1.00  0.00     0.000 A 
HETATM   18  C16 UNL     1     -36.078  11.983  50.036  1.00  0.00     0.000 A 
HETATM   19  C17 UNL     1     -36.583  10.673  49.771  1.00  0.00     0.000 A 
HETATM   20  C18 UNL     1     -36.346  14.442  49.947  1.00  0.00     0.000 A 
HETATM   21  C19 UNL     1     -37.117  15.590  49.592  1.00  0.00     0.000 A 
HETATM   22  C20 UNL     1     -35.396  11.653  50.362  1.00  0.00     0.000 A 
HETATM   23  C21 UNL     1     -35.900  10.344  50.096  1.00  0.00     0.000 A 
HETATM   24  C22 UNL     1     -36.434  15.261  49.917  1.00  0.00     0.000 A 
ENDROOT
TORSDOF 31
ENDMDL
