MODEL 1
REMARK VINA RESULT:     299.1      0.000      0.000
REMARK WARNING: 32 MAX_TORS EXCEEDED!!!
REMARK  42 active torsions:
REMARK  status: ('A' for Active; 'I' for Inactive)
REMARK    1  A    between atoms: O1_1  and  C6_9 
REMARK    2  A    between atoms: O1_1  and  C10_13 
REMARK    3  A    between atoms: O1_1  and  C17_20 
REMARK    4  A    between atoms: O2_2  and  C7_10 
REMARK    5  A    between atoms: O2_2  and  C13_16 
REMARK    6  A    between atoms: C1_4  and  C7_10 
REMARK    7  A    between atoms: C2_5  and  C8_11 
REMARK    8  A    between atoms: C2_5  and  C9_12 
REMARK    9  A    between atoms: C2_5  and  C12_15 
REMARK   10  A    between atoms: C2_5  and  C15_18 
REMARK   11  A    between atoms: C3_6  and  C5_8 
REMARK   12  A    between atoms: C3_6  and  C6_9 
REMARK   13  A    between atoms: C3_6  and  C10_13 
REMARK   14  A    between atoms: C3_6  and  C11_14 
REMARK   15  A    between atoms: C4_7  and  C9_12 
REMARK   16  A    between atoms: C5_8  and  C6_9 
REMARK   17  A    between atoms: C5_8  and  C7_10 
REMARK   18  A    between atoms: C5_8  and  C21_24 
REMARK   19  A    between atoms: C6_9  and  C22_25 
REMARK   20  A    between atoms: C7_10  and  C11_14 
REMARK   21  A    between atoms: C7_10  and  C18_21 
REMARK   22  A    between atoms: C7_10  and  C20_23 
REMARK   23  A    between atoms: C8_11  and  C9_12 
REMARK   24  A    between atoms: C8_11  and  C14_17 
REMARK   25  A    between atoms: C8_11  and  C16_19 
REMARK   26  A    between atoms: C9_12  and  C11_14 
REMARK   27  A    between atoms: C9_12  and  C18_21 
REMARK   28  A    between atoms: C10_13  and  C12_15 
REMARK   29  A    between atoms: C10_13  and  C19_22 
REMARK   30  A    between atoms: C10_13  and  C20_23 
REMARK   31  A    between atoms: C11_14  and  C13_16 
REMARK   32  A    between atoms: C11_14  and  C16_19 
REMARK   33  A    between atoms: C11_14  and  C21_24 
REMARK   34  A    between atoms: C12_15  and  C15_18 
REMARK   35  A    between atoms: C12_15  and  C17_20 
REMARK   36  A    between atoms: C12_15  and  C22_25 
REMARK   37  A    between atoms: C13_16  and  C20_23 
REMARK   38  A    between atoms: C14_17  and  C15_18 
REMARK   39  A    between atoms: C16_19  and  C18_21 
REMARK   40  A    between atoms: C17_20  and  C19_22 
REMARK   41  A    between atoms: C18_21  and  C21_24 
REMARK   42  A    between atoms: C19_22  and  C22_25 
ROOT
HETATM    1  O1  UNL     1     -37.539  14.206  50.513  1.00  0.00     0.000 OA
HETATM    2  O2  UNL     1     -37.153  15.582  50.514  1.00  0.00     0.000 OA
HETATM    3  N1  UNL     1     -40.347  12.115  50.515  1.00  0.00     0.000 N 
HETATM    4  C1  UNL     1     -38.924  13.852  50.514  1.00  0.00     0.000 A 
HETATM    5  C2  UNL     1     -39.513  13.276  50.515  1.00  0.00     0.000 A 
HETATM    6  C3  UNL     1     -38.334  14.428  50.514  1.00  0.00     0.000 A 
HETATM    7  C4  UNL     1     -40.266  12.936  50.515  1.00  0.00     0.000 A 
HETATM    8  C5  UNL     1     -39.500  14.442  50.515  1.00  0.00     0.000 A 
HETATM    9  C6  UNL     1     -38.348  13.262  50.514  1.00  0.00     0.000 A 
HETATM   10  C7  UNL     1     -38.537  15.228  50.515  1.00  0.00     0.000 A 
HETATM   11  C8  UNL     1     -40.936  13.417  50.516  1.00  0.00     0.000 A 
HETATM   12  C9  UNL     1     -40.300  14.239  50.516  1.00  0.00     0.000 A 
HETATM   13  C10 UNL     1     -37.547  13.466  50.513  1.00  0.00     0.000 A 
HETATM   14  C11 UNL     1     -39.278  15.237  50.515  1.00  0.00     0.000 A 
HETATM   15  C12 UNL     1     -38.570  12.467  50.514  1.00  0.00     0.000 A 
HETATM   16  C13 UNL     1     -37.947  15.804  50.514  1.00  0.00     0.000 A 
HETATM   17  C14 UNL     1     -41.099  11.775  50.515  1.00  0.00     0.000 A 
HETATM   18  C15 UNL     1     -39.678  11.634  50.514  1.00  0.00     0.000 A 
HETATM   19  C16 UNL     1     -40.876  14.828  50.516  1.00  0.00     0.000 A 
HETATM   20  C17 UNL     1     -36.972  12.877  50.512  1.00  0.00     0.000 A 
HETATM   21  C18 UNL     1     -39.853  15.827  50.516  1.00  0.00     0.000 A 
HETATM   22  C19 UNL     1     -37.994  11.878  50.513  1.00  0.00     0.000 A 
HETATM   23  C20 UNL     1     -36.949  14.783  50.513  1.00  0.00     0.000 A 
HETATM   24  C21 UNL     1     -40.653  15.622  50.516  1.00  0.00     0.000 A 
HETATM   25  C22 UNL     1     -37.195  12.081  50.512  1.00  0.00     0.000 A 
HETATM   26  C23 UNL     1     -36.154  14.560  50.512  1.00  0.00     0.000 A 
ENDROOT
TORSDOF 42
ENDMDL
