MODEL 1
REMARK VINA RESULT:     225.7      0.000      0.000
REMARK  15 active torsions:
REMARK  status: ('A' for Active; 'I' for Inactive)
REMARK    1  A    between atoms: N1_2  and  C3_6 
REMARK    2  A    between atoms: N1_2  and  C4_7 
REMARK    3  A    between atoms: N2_3  and  C3_6 
REMARK    4  A    between atoms: C1_4  and  C3_6 
REMARK    5  A    between atoms: C1_4  and  C5_8 
REMARK    6  A    between atoms: C2_5  and  C3_6 
REMARK    7  A    between atoms: C2_5  and  C11_14 
REMARK    8  A    between atoms: C4_7  and  C6_9 
REMARK    9  A    between atoms: C5_8  and  C7_10 
REMARK   10  A    between atoms: C7_10  and  C8_11 
REMARK   11  A    between atoms: C7_10  and  C10_13 
REMARK   12  A    between atoms: C8_11  and  C9_12 
REMARK   13  A    between atoms: C8_11  and  C11_14 
REMARK   14  A    between atoms: C9_12  and  C10_13 
REMARK   15  A    between atoms: C10_13  and  C11_14 
ROOT
HETATM    1  O1  UNL     1     -38.714  12.666  49.063  1.00  0.00    -0.359 OA
HETATM    2  N1  UNL     1     -40.055  13.077  49.503  1.00  0.00     0.000 N 
HETATM    3  N2  UNL     1     -40.493  13.775  49.463  1.00  0.00     0.000 N 
HETATM    4  C1  UNL     1     -40.033  14.345  49.083  1.00  0.00     0.052 A 
HETATM    5  C2  UNL     1     -40.305  12.367  49.839  1.00  0.00     0.021 A 
HETATM    6  C3  UNL     1     -39.325  13.215  49.146  1.00  0.00     0.117 A 
HETATM    7  C4  UNL     1     -39.311  13.998  48.886  1.00  0.00     0.118 A 
HETATM    8  C5  UNL     1     -41.257  13.885  49.754  1.00  0.00     0.005 A 
HETATM    9  C6  UNL     1     -40.255  15.123  48.926  1.00  0.00     0.034 A 
HETATM   10  C7  UNL     1     -41.056  12.311  50.178  1.00  0.00     0.002 A 
HETATM   11  C8  UNL     1     -39.804  11.711  49.838  1.00  0.00     0.002 A 
HETATM   12  C9  UNL     1     -41.305  11.601  50.515  1.00  0.00     0.002 A 
HETATM   13  C10 UNL     1     -40.054  11.000  50.175  1.00  0.00     0.002 A 
HETATM   14  C11 UNL     1     -40.803  10.945  50.513  1.00  0.00     0.002 A 
ENDROOT
TORSDOF 15
ENDMDL
