MODEL 1
REMARK VINA RESULT:      84.3      0.000      0.000
REMARK  30 active torsions:
REMARK  status: ('A' for Active; 'I' for Inactive)
REMARK    1  A    between atoms: O1_1  and  C1_4 
REMARK    2  A    between atoms: O1_1  and  C3_6 
REMARK    3  A    between atoms: O1_1  and  C8_11 
REMARK    4  A    between atoms: O2_2  and  C5_8 
REMARK    5  A    between atoms: N1_3  and  C1_4 
REMARK    6  A    between atoms: N1_3  and  C5_8 
REMARK    7  A    between atoms: C1_4  and  C6_9 
REMARK    8  A    between atoms: C1_4  and  C7_10 
REMARK    9  A    between atoms: C2_5  and  C6_9 
REMARK   10  A    between atoms: C2_5  and  C7_10 
REMARK   11  A    between atoms: C2_5  and  C10_13 
REMARK   12  A    between atoms: C3_6  and  C4_7 
REMARK   13  A    between atoms: C3_6  and  C6_9 
REMARK   14  A    between atoms: C3_6  and  C9_12 
REMARK   15  A    between atoms: C3_6  and  C10_13 
REMARK   16  A    between atoms: C3_6  and  C11_14 
REMARK   17  A    between atoms: C4_7  and  C6_9 
REMARK   18  A    between atoms: C4_7  and  C8_11 
REMARK   19  A    between atoms: C4_7  and  C13_16 
REMARK   20  A    between atoms: C5_8  and  C7_10 
REMARK   21  A    between atoms: C5_8  and  C6_9 
REMARK   22  A    between atoms: C6_9  and  C7_10 
REMARK   23  A    between atoms: C6_9  and  C8_11 
REMARK   24  A    between atoms: C8_11  and  C9_12 
REMARK   25  A    between atoms: C9_12  and  C10_13 
REMARK   26  A    between atoms: C9_12  and  C12_15 
REMARK   27  A    between atoms: C10_13  and  C11_14 
REMARK   28  A    between atoms: C10_13  and  C13_16 
REMARK   29  A    between atoms: C11_14  and  C12_15 
REMARK   30  A    between atoms: C12_15  and  C13_16 
ROOT
HETATM    1  O1  UNL     1     -41.012  14.732  48.030  1.00  0.00     0.000 OA
HETATM    2  O2  UNL     1     -41.180  13.017  50.310  1.00  0.00     0.000 OA
HETATM    3  N1  UNL     1     -41.096  13.874  49.171  1.00  0.00     0.000 N 
HETATM    4  C6  UNL     1     -40.863  14.588  48.829  1.00  0.00     0.000 A 
HETATM    5  C7  UNL     1     -40.947  13.731  49.969  1.00  0.00     0.000 A 
ENDROOT
BRANCH   1   6
HETATM    6  C1  UNL     1     -40.481  15.159  49.286  1.00  0.00     0.000 A 
HETATM    7  C2  UNL     1     -40.587  15.322  50.087  1.00  0.00     0.000 A 
HETATM    8  C5  UNL     1     -41.328  15.222  50.435  1.00  0.00     0.000 A 
HETATM    9  C3  UNL     1     -39.992  15.123  48.623  1.00  0.00     0.000 A 
HETATM   10  C4  UNL     1     -39.686  15.370  49.348  1.00  0.00     0.000 A 
HETATM   11  C8  UNL     1     -40.299  14.876  47.897  1.00  0.00     0.000 A 
HETATM   12  C9  UNL     1     -39.197  15.333  48.683  1.00  0.00     0.000 A 
HETATM   13  C10 UNL     1     -39.379  15.616  50.073  1.00  0.00     0.000 A 
HETATM   14  C11 UNL     1     -38.402  15.544  48.746  1.00  0.00     0.000 A 
HETATM   15  C12 UNL     1     -38.583  15.827  50.134  1.00  0.00     0.000 A 
HETATM   16  C13 UNL     1     -38.095  15.791  49.471  1.00  0.00     0.000 A 
ENDBRANCH   1   6
TORSDOF 30
ENDMDL
