MODEL 1
REMARK VINA RESULT:     223.1      0.000      0.000
REMARK  12 active torsions:
REMARK  status: ('A' for Active; 'I' for Inactive)
REMARK    1  A    between atoms: S1_1  and  N1_8 
REMARK    2  A    between atoms: O1_2  and  C2_12 
REMARK    3  A    between atoms: O2_3  and  C3_13 
REMARK    4  A    between atoms: N1_8  and  C2_12 
REMARK    5  A    between atoms: N1_8  and  C7_17 
REMARK    6  A    between atoms: N2_9  and  C8_18 
REMARK    7  A    between atoms: N3_10  and  C3_13 
REMARK    8  A    between atoms: N3_10  and  C10_20 
REMARK    9  A    between atoms: C1_11  and  C8_18 
REMARK   10  A    between atoms: C3_13  and  C7_17 
REMARK   11  A    between atoms: C5_15  and  C6_16 
REMARK   12  A    between atoms: C6_16  and  C7_17 
ROOT
HETATM    1  S1  UNL     1     -40.460  12.731  47.757  1.00  0.00    -0.178 SA
HETATM    2  O1  UNL     1     -39.809  12.771  48.263  1.00  0.00     0.000 OA
HETATM    3  O3  UNL     1     -36.752  12.257  50.426  1.00  0.00    -0.292 OA
HETATM    4  O4  UNL     1     -37.600  11.504  49.558  1.00  0.00    -0.292 OA
HETATM    5  N1  UNL     1     -40.066  14.159  48.483  1.00  0.00     0.000 N 
HETATM    6  N2  UNL     1     -37.660  13.605  50.141  1.00  0.00    -0.182 NA
HETATM    7  C1  UNL     1     -38.508  12.852  49.273  1.00  0.00     0.165 A 
HETATM    8  C2  UNL     1     -38.961  13.525  49.131  1.00  0.00     0.099 A 
HETATM    9  C3  UNL     1     -40.717  14.119  47.978  1.00  0.00     0.055 A 
HETATM   10  C4  UNL     1     -37.857  12.891  49.779  1.00  0.00     0.225 A 
HETATM   11  C5  UNL     1     -39.612  13.485  48.626  1.00  0.00     0.069 A 
HETATM   12  C6  UNL     1     -40.914  13.405  47.615  1.00  0.00     0.055 A 
HETATM   13  C8  UNL     1     -37.403  12.218  49.921  1.00  0.00     0.264 A 
ENDROOT
BRANCH  12  14
HETATM   14  C7  UNL     1     -41.171  14.793  47.835  1.00  0.00     0.077 A 
HETATM   15  O2  UNL     1     -41.322  15.548  47.538  1.00  0.00     0.000 OA
HETATM   16  N3  UNL     1     -41.126  14.673  48.650  1.00  0.00     0.000 N 
HETATM   17  C9  UNL     1     -41.232  15.307  49.168  1.00  0.00     0.246 A 
HETATM   18  C10 UNL     1     -41.187  15.187  49.982  1.00  0.00     0.293 A 
HETATM   19  O5  UNL     1     -41.293  15.820  50.500  1.00  0.00    -0.302 OA
HETATM   20  O6  UNL     1     -41.036  14.432  50.280  1.00  0.00    -0.302 OA
ENDBRANCH  12  14
TORSDOF 12
ENDMDL
