MODEL 1
REMARK VINA RESULT:       9.3      0.000      0.000
REMARK  0 active torsions:
REMARK  status: ('A' for Active; 'I' for Inactive)
ROOT
HETATM    1  O1  UNL     1     -38.005  15.725  50.498  1.00  0.00    -0.342 OA
HETATM    2  O2  UNL     1     -41.326  15.820  49.120  1.00  0.00    -0.304 OA
HETATM    3  O3  UNL     1     -40.977  15.825  50.507  1.00  0.00    -0.304 OA
HETATM    4  C1  UNL     1     -39.379  15.767  50.105  1.00  0.00     0.224 A 
HETATM    5  C2  UNL     1     -39.952  15.779  49.512  1.00  0.00     0.252 A 
HETATM    6  C3  UNL     1     -38.579  15.737  49.904  1.00  0.00     0.204 A 
HETATM    7  C4  UNL     1     -40.752  15.808  49.714  1.00  0.00     0.270 A 
ENDROOT
TORSDOF 0
ENDMDL
