MODEL 1
REMARK VINA RESULT:     163.5      0.000      0.000
REMARK  9 active torsions:
REMARK  status: ('A' for Active; 'I' for Inactive)
REMARK    1  A    between atoms: C1_2  and  C3_4 
REMARK    2  A    between atoms: C2_3  and  C4_5 
REMARK    3  A    between atoms: C8_9  and  C15_16 
REMARK    4  A    between atoms: C10_11  and  C11_12 
REMARK    5  A    between atoms: C10_11  and  C14_15 
REMARK    6  A    between atoms: C11_12  and  C13_14 
REMARK    7  A    between atoms: C11_12  and  C15_16 
REMARK    8  A    between atoms: C13_14  and  C14_15 
REMARK    9  A    between atoms: C14_15  and  C15_16 
ROOT
HETATM    1  N1  UNL     1     -37.979  15.103  50.414  1.00  0.00    -0.010 N 
HETATM    2  C3  UNL     1     -39.172  14.161  50.301  1.00  0.00     0.146 A 
HETATM    3  C4  UNL     1     -38.381  14.384  50.364  1.00  0.00     0.190 A 
HETATM    4  C8  UNL     1     -39.890  14.565  50.263  1.00  0.00     0.045 A 
HETATM    5  C9  UNL     1     -37.156  15.112  50.472  1.00  0.00     0.245 A 
HETATM    6  C10 UNL     1     -39.901  15.390  50.287  1.00  0.00     0.026 A 
HETATM    7  C11 UNL     1     -40.597  14.145  50.200  1.00  0.00     0.026 A 
HETATM    8  C12 UNL     1     -36.755  15.831  50.523  1.00  0.00     0.249 A 
HETATM    9  C13 UNL     1     -40.620  15.793  50.249  1.00  0.00     0.007 A 
HETATM   10  C14 UNL     1     -41.316  14.548  50.161  1.00  0.00     0.007 A 
HETATM   11  C15 UNL     1     -41.327  15.373  50.186  1.00  0.00     0.007 A 
ENDROOT
BRANCH   3  12
HETATM   12  C2  UNL     1     -38.006  12.169  50.322  1.00  0.00     0.029 A 
HETATM   13  C5  UNL     1     -39.012  12.232  50.219  1.00  0.00     0.004 A 
HETATM   14  C1  UNL     1     -37.462  12.785  50.402  1.00  0.00     0.026 A 
HETATM   15  C6  UNL     1     -36.113  11.865  50.510  1.00  0.00     0.002 A 
HETATM   16  C7  UNL     1     -36.657  11.250  50.430  1.00  0.00     0.002 A 
ENDBRANCH   3  12
TORSDOF 9
ENDMDL
