MODEL 1
REMARK VINA RESULT:      44.8      0.000      0.000
REMARK  12 active torsions:
REMARK  status: ('A' for Active; 'I' for Inactive)
REMARK    1  A    between atoms: O1_1  and  C4_8 
REMARK    2  A    between atoms: N1_4  and  C1_5 
REMARK    3  A    between atoms: C1_5  and  C6_10 
REMARK    4  A    between atoms: C1_5  and  C4_8 
REMARK    5  A    between atoms: C1_5  and  C8_12 
REMARK    6  A    between atoms: C2_6  and  C4_8 
REMARK    7  A    between atoms: C2_6  and  C6_10 
REMARK    8  A    between atoms: C3_7  and  C6_10 
REMARK    9  A    between atoms: C3_7  and  C7_11 
REMARK   10  A    between atoms: C3_7  and  C8_12 
REMARK   11  A    between atoms: C5_9  and  C6_10 
REMARK   12  A    between atoms: C5_9  and  C8_12 
ROOT
HETATM    1  O1  UNL     1     -41.121  15.325  49.100  1.00  0.00     0.000 OA
HETATM    2  O2  UNL     1     -37.858  15.821  50.528  1.00  0.00    -0.358 OA
HETATM    3  O3  UNL     1     -41.097  15.193  50.523  1.00  0.00    -0.358 OA
HETATM    4  N1  UNL     1     -39.107  15.784  48.392  1.00  0.00     0.000 N 
HETATM    5  C1  UNL     1     -39.084  15.651  49.815  1.00  0.00     0.111 A 
HETATM    6  C2  UNL     1     -39.894  15.494  49.813  1.00  0.00     0.111 A 
HETATM    7  C3  UNL     1     -40.310  15.482  49.102  1.00  0.00     0.072 A 
HETATM    8  C4  UNL     1     -39.917  15.627  48.391  1.00  0.00     0.056 A 
HETATM    9  C5  UNL     1     -38.667  15.664  50.526  1.00  0.00     0.139 A 
HETATM   10  C6  UNL     1     -38.691  15.796  49.104  1.00  0.00     0.078 A 
HETATM   11  C7  UNL     1     -40.334  15.614  47.678  1.00  0.00     0.012 A 
HETATM   12  C8  UNL     1     -40.287  15.350  50.524  1.00  0.00     0.139 A 
ENDROOT
TORSDOF 12
ENDMDL
