MODEL 1
REMARK VINA RESULT:      -0.2      0.000      0.000
REMARK  30 active torsions:
REMARK  status: ('A' for Active; 'I' for Inactive)
REMARK    1  A    between atoms: O1_2  and  C4_12 
REMARK    2  A    between atoms: O2_3  and  N4_7 
REMARK    3  A    between atoms: N1_4  and  N5_8 
REMARK    4  A    between atoms: N1_4  and  C6_14 
REMARK    5  A    between atoms: N1_4  and  C9_17 
REMARK    6  A    between atoms: N2_5  and  C2_10 
REMARK    7  A    between atoms: N3_6  and  N4_7 
REMARK    8  A    between atoms: N4_7  and  C11_19 
REMARK    9  A    between atoms: N4_7  and  C4_12 
REMARK   10  A    between atoms: N5_8  and  C8_16 
REMARK   11  A    between atoms: C1_9  and  C15_23 
REMARK   12  A    between atoms: C3_11  and  C7_15 
REMARK   13  A    between atoms: C4_12  and  C9_17 
REMARK   14  A    between atoms: C4_12  and  C8_16 
REMARK   15  A    between atoms: C4_12  and  C11_19 
REMARK   16  A    between atoms: C5_13  and  C7_15 
REMARK   17  A    between atoms: C6_14  and  C8_16 
REMARK   18  A    between atoms: C6_14  and  C9_17 
REMARK   19  A    between atoms: C7_15  and  C10_18 
REMARK   20  A    between atoms: C7_15  and  C15_23 
REMARK   21  A    between atoms: C9_17  and  C11_19 
REMARK   22  A    between atoms: C10_18  and  C18_26 
REMARK   23  A    between atoms: C11_19  and  C12_20 
REMARK   24  A    between atoms: C11_19  and  C13_21 
REMARK   25  A    between atoms: C14_22  and  C15_23 
REMARK   26  A    between atoms: C14_22  and  C17_25 
REMARK   27  A    between atoms: C15_23  and  C16_24 
REMARK   28  A    between atoms: C15_23  and  C18_26 
REMARK   29  A    between atoms: C16_24  and  C17_25 
REMARK   30  A    between atoms: C17_25  and  C18_26 
ROOT
HETATM    1 CL1  UNL     1     -41.327  15.838  50.153  1.00  0.00     0.000 Cl
ENDROOT
TORSDOF 30
ENDMDL
MODEL 2
REMARK VINA RESULT:       0.1      1.153      1.153
REMARK  30 active torsions:
REMARK  status: ('A' for Active; 'I' for Inactive)
REMARK    1  A    between atoms: O1_2  and  C4_12 
REMARK    2  A    between atoms: O2_3  and  N4_7 
REMARK    3  A    between atoms: N1_4  and  N5_8 
REMARK    4  A    between atoms: N1_4  and  C6_14 
REMARK    5  A    between atoms: N1_4  and  C9_17 
REMARK    6  A    between atoms: N2_5  and  C2_10 
REMARK    7  A    between atoms: N3_6  and  N4_7 
REMARK    8  A    between atoms: N4_7  and  C11_19 
REMARK    9  A    between atoms: N4_7  and  C4_12 
REMARK   10  A    between atoms: N5_8  and  C8_16 
REMARK   11  A    between atoms: C1_9  and  C15_23 
REMARK   12  A    between atoms: C3_11  and  C7_15 
REMARK   13  A    between atoms: C4_12  and  C9_17 
REMARK   14  A    between atoms: C4_12  and  C8_16 
REMARK   15  A    between atoms: C4_12  and  C11_19 
REMARK   16  A    between atoms: C5_13  and  C7_15 
REMARK   17  A    between atoms: C6_14  and  C8_16 
REMARK   18  A    between atoms: C6_14  and  C9_17 
REMARK   19  A    between atoms: C7_15  and  C10_18 
REMARK   20  A    between atoms: C7_15  and  C15_23 
REMARK   21  A    between atoms: C9_17  and  C11_19 
REMARK   22  A    between atoms: C10_18  and  C18_26 
REMARK   23  A    between atoms: C11_19  and  C12_20 
REMARK   24  A    between atoms: C11_19  and  C13_21 
REMARK   25  A    between atoms: C14_22  and  C15_23 
REMARK   26  A    between atoms: C14_22  and  C17_25 
REMARK   27  A    between atoms: C15_23  and  C16_24 
REMARK   28  A    between atoms: C15_23  and  C18_26 
REMARK   29  A    between atoms: C16_24  and  C17_25 
REMARK   30  A    between atoms: C17_25  and  C18_26 
ROOT
HETATM    1 CL1  UNL     1     -40.231  15.838  50.509  1.00  0.00     0.000 Cl
ENDROOT
TORSDOF 30
ENDMDL
MODEL 3
REMARK VINA RESULT:       1.5      1.773      1.773
REMARK  30 active torsions:
REMARK  status: ('A' for Active; 'I' for Inactive)
REMARK    1  A    between atoms: O1_2  and  C4_12 
REMARK    2  A    between atoms: O2_3  and  N4_7 
REMARK    3  A    between atoms: N1_4  and  N5_8 
REMARK    4  A    between atoms: N1_4  and  C6_14 
REMARK    5  A    between atoms: N1_4  and  C9_17 
REMARK    6  A    between atoms: N2_5  and  C2_10 
REMARK    7  A    between atoms: N3_6  and  N4_7 
REMARK    8  A    between atoms: N4_7  and  C11_19 
REMARK    9  A    between atoms: N4_7  and  C4_12 
REMARK   10  A    between atoms: N5_8  and  C8_16 
REMARK   11  A    between atoms: C1_9  and  C15_23 
REMARK   12  A    between atoms: C3_11  and  C7_15 
REMARK   13  A    between atoms: C4_12  and  C9_17 
REMARK   14  A    between atoms: C4_12  and  C8_16 
REMARK   15  A    between atoms: C4_12  and  C11_19 
REMARK   16  A    between atoms: C5_13  and  C7_15 
REMARK   17  A    between atoms: C6_14  and  C8_16 
REMARK   18  A    between atoms: C6_14  and  C9_17 
REMARK   19  A    between atoms: C7_15  and  C10_18 
REMARK   20  A    between atoms: C7_15  and  C15_23 
REMARK   21  A    between atoms: C9_17  and  C11_19 
REMARK   22  A    between atoms: C10_18  and  C18_26 
REMARK   23  A    between atoms: C11_19  and  C12_20 
REMARK   24  A    between atoms: C11_19  and  C13_21 
REMARK   25  A    between atoms: C14_22  and  C15_23 
REMARK   26  A    between atoms: C14_22  and  C17_25 
REMARK   27  A    between atoms: C15_23  and  C16_24 
REMARK   28  A    between atoms: C15_23  and  C18_26 
REMARK   29  A    between atoms: C16_24  and  C17_25 
REMARK   30  A    between atoms: C17_25  and  C18_26 
ROOT
HETATM    1 CL1  UNL     1     -39.769  15.837  49.307  1.00  0.00     0.000 Cl
ENDROOT
TORSDOF 30
ENDMDL
