MODEL 1
REMARK VINA RESULT:     100.9      0.000      0.000
REMARK  16 active torsions:
REMARK  status: ('A' for Active; 'I' for Inactive)
REMARK    1  A    between atoms: N1_3  and  C1_5 
REMARK    2  A    between atoms: N2_4  and  C6_10 
REMARK    3  A    between atoms: N2_4  and  C9_13 
REMARK    4  A    between atoms: C1_5  and  C6_10 
REMARK    5  A    between atoms: C1_5  and  C5_9 
REMARK    6  A    between atoms: C2_6  and  C6_10 
REMARK    7  A    between atoms: C2_6  and  C9_13 
REMARK    8  A    between atoms: C3_7  and  C6_10 
REMARK    9  A    between atoms: C3_7  and  C8_12 
REMARK   10  A    between atoms: C3_7  and  C11_15 
REMARK   11  A    between atoms: C5_9  and  C7_11 
REMARK   12  A    between atoms: C5_9  and  C10_14 
REMARK   13  A    between atoms: C7_11  and  C8_12 
REMARK   14  A    between atoms: C7_11  and  C11_15 
REMARK   15  A    between atoms: C8_12  and  C10_14 
REMARK   16  A    between atoms: C10_14  and  C11_15 
ROOT
HETATM    1  O1  UNL     1     -41.282  10.615  48.391  1.00  0.00    -0.270 OA
HETATM    2  O2  UNL     1     -41.250  11.270  49.661  1.00  0.00    -0.270 OA
HETATM    3  N1  UNL     1     -41.322  14.401  47.582  1.00  0.00     0.000 N 
HETATM    4  N2  UNL     1     -41.310  12.081  47.636  1.00  0.00     0.082 N 
HETATM    5  C1  UNL     1     -41.292  13.469  48.527  1.00  0.00     0.121 A 
HETATM    6  C2  UNL     1     -41.278  12.736  48.905  1.00  0.00     0.280 A 
HETATM    7  C3  UNL     1     -41.285  14.202  48.896  1.00  0.00     0.061 A 
HETATM    8  C4  UNL     1     -41.287  12.042  48.459  1.00  0.00     0.342 A 
HETATM    9  C5  UNL     1     -41.304  14.781  48.309  1.00  0.00     0.035 A 
HETATM   10  C6  UNL     1     -41.315  13.593  47.717  1.00  0.00     0.194 A 
HETATM   11  C7  UNL     1     -41.264  14.420  49.691  1.00  0.00     0.015 A 
HETATM   12  C8  UNL     1     -41.302  15.579  48.517  1.00  0.00     0.006 A 
HETATM   13  C9  UNL     1     -41.273  11.309  48.838  1.00  0.00     0.393 A 
HETATM   14  C10 UNL     1     -41.263  15.219  49.899  1.00  0.00     0.006 A 
HETATM   15  C11 UNL     1     -41.281  15.799  49.312  1.00  0.00     0.006 A 
ENDROOT
TORSDOF 16
ENDMDL
