MODEL 1
REMARK VINA RESULT:     236.3      0.000      0.000
REMARK  27 active torsions:
REMARK  status: ('A' for Active; 'I' for Inactive)
REMARK    1  A    between atoms: CL1_1  and  C10_15 
REMARK    2  A    between atoms: CL2_2  and  C2_7 
REMARK    3  A    between atoms: CL2_2  and  C5_10 
REMARK    4  A    between atoms: CL2_2  and  C10_15 
REMARK    5  A    between atoms: O1_3  and  C6_11 
REMARK    6  A    between atoms: N1_4  and  C6_11 
REMARK    7  A    between atoms: N2_5  and  C8_13 
REMARK    8  A    between atoms: C1_6  and  C4_9 
REMARK    9  A    between atoms: C1_6  and  C7_12 
REMARK   10  A    between atoms: C1_6  and  C9_14 
REMARK   11  A    between atoms: C2_7  and  C3_8 
REMARK   12  A    between atoms: C2_7  and  C11_16 
REMARK   13  A    between atoms: C3_8  and  C5_10 
REMARK   14  A    between atoms: C4_9  and  C5_10 
REMARK   15  A    between atoms: C4_9  and  C13_18 
REMARK   16  A    between atoms: C4_9  and  C15_20 
REMARK   17  A    between atoms: C5_10  and  C10_15 
REMARK   18  A    between atoms: C5_10  and  C11_16 
REMARK   19  A    between atoms: C6_11  and  C8_13 
REMARK   20  A    between atoms: C7_12  and  C9_14 
REMARK   21  A    between atoms: C9_14  and  C10_15 
REMARK   22  A    between atoms: C11_16  and  C12_17 
REMARK   23  A    between atoms: C11_16  and  C14_19 
REMARK   24  A    between atoms: C12_17  and  C13_18 
REMARK   25  A    between atoms: C12_17  and  C15_20 
REMARK   26  A    between atoms: C13_18  and  C14_19 
REMARK   27  A    between atoms: C14_19  and  C15_20 
ROOT
HETATM    1 CL1  UNL     1     -36.463  14.824  50.391  1.00  0.00    -0.258 Cl
HETATM    2 CL2  UNL     1     -37.421  13.821  50.385  1.00  0.00    -0.279 Cl
HETATM    3  O1  UNL     1     -41.140  15.309  49.954  1.00  0.00     0.000 OA
HETATM    4  N1  UNL     1     -39.750  15.383  50.068  1.00  0.00     0.000 N 
HETATM    5  N2  UNL     1     -39.871  13.538  50.196  1.00  0.00     0.000 N 
HETATM    6  C1  UNL     1     -38.655  14.391  50.236  1.00  0.00     0.043 A 
HETATM    7  C2  UNL     1     -39.060  13.673  50.255  1.00  0.00     0.032 A 
HETATM    8  C3  UNL     1     -38.963  15.153  50.152  1.00  0.00     0.048 A 
HETATM    9  C4  UNL     1     -38.590  13.000  50.346  1.00  0.00     0.031 A 
HETATM   10  C5  UNL     1     -37.809  14.264  50.318  1.00  0.00     0.047 A 
HETATM   11  C6  UNL     1     -40.479  14.088  50.103  1.00  0.00     0.011 A 
HETATM   12  C7  UNL     1     -38.445  15.838  50.145  1.00  0.00     0.053 A 
HETATM   13  C8  UNL     1     -40.425  14.909  50.046  1.00  0.00     0.007 A 
HETATM   14  C9  UNL     1     -37.276  14.937  50.313  1.00  0.00     0.063 A 
HETATM   15  C10 UNL     1     -37.596  15.730  50.226  1.00  0.00     0.061 A 
HETATM   16  C11 UNL     1     -37.772  13.074  50.411  1.00  0.00     0.031 A 
HETATM   17  C12 UNL     1     -38.941  12.253  50.373  1.00  0.00     0.032 A 
HETATM   18  C13 UNL     1     -37.302  12.402  50.502  1.00  0.00     0.024 A 
HETATM   19  C14 UNL     1     -38.471  11.581  50.463  1.00  0.00     0.028 A 
HETATM   20  C15 UNL     1     -37.652  11.655  50.528  1.00  0.00     0.028 A 
ENDROOT
TORSDOF 27
ENDMDL
MODEL 2
REMARK VINA RESULT:     238.6      2.747      3.061
REMARK  27 active torsions:
REMARK  status: ('A' for Active; 'I' for Inactive)
REMARK    1  A    between atoms: CL1_1  and  C10_15 
REMARK    2  A    between atoms: CL2_2  and  C2_7 
REMARK    3  A    between atoms: CL2_2  and  C5_10 
REMARK    4  A    between atoms: CL2_2  and  C10_15 
REMARK    5  A    between atoms: O1_3  and  C6_11 
REMARK    6  A    between atoms: N1_4  and  C6_11 
REMARK    7  A    between atoms: N2_5  and  C8_13 
REMARK    8  A    between atoms: C1_6  and  C4_9 
REMARK    9  A    between atoms: C1_6  and  C7_12 
REMARK   10  A    between atoms: C1_6  and  C9_14 
REMARK   11  A    between atoms: C2_7  and  C3_8 
REMARK   12  A    between atoms: C2_7  and  C11_16 
REMARK   13  A    between atoms: C3_8  and  C5_10 
REMARK   14  A    between atoms: C4_9  and  C5_10 
REMARK   15  A    between atoms: C4_9  and  C13_18 
REMARK   16  A    between atoms: C4_9  and  C15_20 
REMARK   17  A    between atoms: C5_10  and  C10_15 
REMARK   18  A    between atoms: C5_10  and  C11_16 
REMARK   19  A    between atoms: C6_11  and  C8_13 
REMARK   20  A    between atoms: C7_12  and  C9_14 
REMARK   21  A    between atoms: C9_14  and  C10_15 
REMARK   22  A    between atoms: C11_16  and  C12_17 
REMARK   23  A    between atoms: C11_16  and  C14_19 
REMARK   24  A    between atoms: C12_17  and  C13_18 
REMARK   25  A    between atoms: C12_17  and  C15_20 
REMARK   26  A    between atoms: C13_18  and  C14_19 
REMARK   27  A    between atoms: C14_19  and  C15_20 
ROOT
HETATM    1 CL1  UNL     1     -37.570  12.787  47.719  1.00  0.00    -0.258 Cl
HETATM    2 CL2  UNL     1     -38.924  12.488  47.690  1.00  0.00    -0.279 Cl
HETATM    3  O1  UNL     1     -41.193  15.802  48.005  1.00  0.00     0.000 OA
HETATM    4  N1  UNL     1     -39.995  15.087  47.938  1.00  0.00     0.000 N 
HETATM    5  N2  UNL     1     -41.120  13.621  47.796  1.00  0.00     0.000 N 
HETATM    6  C1  UNL     1     -39.635  13.651  47.800  1.00  0.00     0.043 A 
HETATM    7  C2  UNL     1     -40.370  13.280  47.764  1.00  0.00     0.032 A 
HETATM    8  C3  UNL     1     -39.467  14.456  47.878  1.00  0.00     0.048 A 
HETATM    9  C4  UNL     1     -40.353  12.459  47.686  1.00  0.00     0.031 A 
HETATM   10  C5  UNL     1     -39.001  13.073  47.746  1.00  0.00     0.047 A 
HETATM   11  C6  UNL     1     -41.321  14.418  47.872  1.00  0.00     0.011 A 
HETATM   12  C7  UNL     1     -38.656  14.737  47.905  1.00  0.00     0.053 A 
HETATM   13  C8  UNL     1     -40.820  15.070  47.935  1.00  0.00     0.007 A 
HETATM   14  C9  UNL     1     -38.183  13.335  47.771  1.00  0.00     0.063 A 
HETATM   15  C10 UNL     1     -38.010  14.173  47.852  1.00  0.00     0.061 A 
HETATM   16  C11 UNL     1     -39.630  12.063  47.648  1.00  0.00     0.031 A 
HETATM   17  C12 UNL     1     -41.059  12.034  47.644  1.00  0.00     0.032 A 
HETATM   18  C13 UNL     1     -39.613  11.242  47.570  1.00  0.00     0.024 A 
HETATM   19  C14 UNL     1     -41.041  11.212  47.566  1.00  0.00     0.028 A 
HETATM   20  C15 UNL     1     -40.318  10.816  47.528  1.00  0.00     0.028 A 
ENDROOT
TORSDOF 27
ENDMDL
