MODEL 1
REMARK VINA RESULT:     158.8      0.000      0.000
REMARK  21 active torsions:
REMARK  status: ('A' for Active; 'I' for Inactive)
REMARK    1  A    between atoms: O1_1  and  C9_12 
REMARK    2  A    between atoms: O2_2  and  N1_3 
REMARK    3  A    between atoms: N1_3  and  C5_8 
REMARK    4  A    between atoms: C1_4  and  C5_8 
REMARK    5  A    between atoms: C1_4  and  C8_11 
REMARK    6  A    between atoms: C1_4  and  C10_13 
REMARK    7  A    between atoms: C2_5  and  C3_6 
REMARK    8  A    between atoms: C2_5  and  C6_9 
REMARK    9  A    between atoms: C2_5  and  C7_10 
REMARK   10  A    between atoms: C2_5  and  C10_13 
REMARK   11  A    between atoms: C4_7  and  C6_9 
REMARK   12  A    between atoms: C5_8  and  C6_9 
REMARK   13  A    between atoms: C7_10  and  C8_11 
REMARK   14  A    between atoms: C7_10  and  C13_16 
REMARK   15  A    between atoms: C8_11  and  C9_12 
REMARK   16  A    between atoms: C9_12  and  C10_13 
REMARK   17  A    between atoms: C9_12  and  C12_15 
REMARK   18  A    between atoms: C10_13  and  C11_14 
REMARK   19  A    between atoms: C10_13  and  C13_16 
REMARK   20  A    between atoms: C11_14  and  C12_15 
REMARK   21  A    between atoms: C12_15  and  C13_16 
ROOT
HETATM    1  O1  UNL     1     -40.436  15.074  49.690  1.00  0.00     0.000 OA
HETATM    2  O2  UNL     1     -41.317  13.949  49.682  1.00  0.00     0.000 OA
HETATM    3  N1  UNL     1     -41.102  12.881  48.757  1.00  0.00     0.000 N 
HETATM    4  C1  UNL     1     -40.443  13.275  48.454  1.00  0.00     0.000 A 
HETATM    5  C2  UNL     1     -40.007  12.939  47.840  1.00  0.00     0.000 A 
HETATM    6  C3  UNL     1     -40.222  14.007  48.766  1.00  0.00     0.000 A 
HETATM    7  C4  UNL     1     -40.229  12.208  47.529  1.00  0.00     0.000 A 
HETATM    8  C5  UNL     1     -40.887  11.813  47.832  1.00  0.00     0.000 A 
HETATM    9  C6  UNL     1     -41.324  12.150  48.445  1.00  0.00     0.000 A 
HETATM   10  C7  UNL     1     -39.563  14.401  48.463  1.00  0.00     0.000 A 
HETATM   11  C8  UNL     1     -40.658  14.344  49.379  1.00  0.00     0.000 A 
HETATM   12  C9  UNL     1     -39.342  15.132  48.774  1.00  0.00     0.000 A 
HETATM   13  C10 UNL     1     -39.127  14.064  47.849  1.00  0.00     0.000 A 
HETATM   14  C11 UNL     1     -38.683  15.527  48.471  1.00  0.00     0.000 A 
HETATM   15  C12 UNL     1     -38.469  14.459  47.547  1.00  0.00     0.000 A 
HETATM   16  C13 UNL     1     -38.247  15.190  47.857  1.00  0.00     0.000 A 
HETATM   17  C14 UNL     1     -40.873  15.411  50.304  1.00  0.00     0.000 A 
ENDROOT
TORSDOF 21
ENDMDL
