MODEL 1
REMARK VINA RESULT:     332.3      0.000      0.000
REMARK  29 active torsions:
REMARK  status: ('A' for Active; 'I' for Inactive)
REMARK    1  A    between atoms: CL1_1  and  C11_18 
REMARK    2  A    between atoms: F1_2  and  C7_14 
REMARK    3  A    between atoms: O2_4  and  O3_5 
REMARK    4  A    between atoms: O2_4  and  C3_10 
REMARK    5  A    between atoms: O2_4  and  C9_16 
REMARK    6  A    between atoms: N1_6  and  C3_10 
REMARK    7  A    between atoms: N2_7  and  C6_13 
REMARK    8  A    between atoms: N2_7  and  C9_16 
REMARK    9  A    between atoms: C1_8  and  C5_12 
REMARK   10  A    between atoms: C1_8  and  C8_15 
REMARK   11  A    between atoms: C1_8  and  C10_17 
REMARK   12  A    between atoms: C2_9  and  C4_11 
REMARK   13  A    between atoms: C2_9  and  C12_19 
REMARK   14  A    between atoms: C3_10  and  C6_13 
REMARK   15  A    between atoms: C4_11  and  C7_14 
REMARK   16  A    between atoms: C5_12  and  C7_14 
REMARK   17  A    between atoms: C5_12  and  C14_21 
REMARK   18  A    between atoms: C5_12  and  C16_23 
REMARK   19  A    between atoms: C6_13  and  C9_16 
REMARK   20  A    between atoms: C7_14  and  C11_18 
REMARK   21  A    between atoms: C7_14  and  C12_19 
REMARK   22  A    between atoms: C8_15  and  C10_17 
REMARK   23  A    between atoms: C10_17  and  C11_18 
REMARK   24  A    between atoms: C12_19  and  C13_20 
REMARK   25  A    between atoms: C12_19  and  C15_22 
REMARK   26  A    between atoms: C13_20  and  C14_21 
REMARK   27  A    between atoms: C13_20  and  C16_23 
REMARK   28  A    between atoms: C14_21  and  C15_22 
REMARK   29  A    between atoms: C15_22  and  C16_23 
ROOT
HETATM    1 CL1  UNL     1     -36.126  15.215  50.447  1.00  0.00    -0.231 Cl
HETATM    2  F1  UNL     1     -36.812  14.010  50.402  1.00  0.00    -0.583 F 
HETATM    3  O1  UNL     1     -40.422  12.228  50.098  1.00  0.00     0.000 OA
HETATM    4  O2  UNL     1     -40.785  14.563  50.030  1.00  0.00     0.000 OA
HETATM    5  O3  UNL     1     -41.260  13.382  50.004  1.00  0.00     0.000 OA
HETATM    6  N1  UNL     1     -39.453  14.968  50.146  1.00  0.00     0.000 N 
HETATM    7  N2  UNL     1     -39.121  13.146  50.203  1.00  0.00     0.000 N 
HETATM    8  C1  UNL     1     -38.148  14.268  50.276  1.00  0.00     0.055 A 
HETATM    9  C2  UNL     1     -38.365  13.472  50.268  1.00  0.00     0.066 A 
HETATM   10  C3  UNL     1     -39.845  13.535  50.131  1.00  0.00     0.009 A 
HETATM   11  C4  UNL     1     -38.632  14.934  50.222  1.00  0.00     0.064 A 
HETATM   12  C5  UNL     1     -37.746  12.931  50.332  1.00  0.00     0.043 A 
HETATM   13  C6  UNL     1     -39.993  14.346  50.106  1.00  0.00     0.007 A 
HETATM   14  C7  UNL     1     -37.297  14.347  50.353  1.00  0.00     0.059 A 
HETATM   15  C8  UNL     1     -38.297  15.725  50.241  1.00  0.00     0.072 A 
HETATM   16  C9  UNL     1     -40.509  13.048  50.078  1.00  0.00     0.005 A 
HETATM   17  C10 UNL     1     -36.943  15.130  50.374  1.00  0.00     0.082 A 
HETATM   18  C11 UNL     1     -37.447  15.824  50.317  1.00  0.00     0.098 A 
HETATM   19  C12 UNL     1     -36.969  13.200  50.400  1.00  0.00     0.043 A 
HETATM   20  C13 UNL     1     -37.903  12.121  50.330  1.00  0.00     0.060 A 
HETATM   21  C14 UNL     1     -36.350  12.659  50.464  1.00  0.00     0.039 A 
HETATM   22  C15 UNL     1     -37.284  11.580  50.395  1.00  0.00     0.058 A 
HETATM   23  C16 UNL     1     -36.507  11.849  50.462  1.00  0.00     0.058 A 
HETATM   24  C17 UNL     1     -41.086  11.741  50.044  1.00  0.00     0.026 A 
HETATM   25  C18 UNL     1     -40.998  10.920  50.064  1.00  0.00    -0.031 A 
ENDROOT
TORSDOF 29
ENDMDL
