MODEL 1
REMARK VINA RESULT:     162.8      0.000      0.000
REMARK  12 active torsions:
REMARK  status: ('A' for Active; 'I' for Inactive)
REMARK    1  A    between atoms: C1_3  and  C6_8 
REMARK    2  A    between atoms: C2_4  and  C4_6 
REMARK    3  A    between atoms: C3_5  and  C4_6 
REMARK    4  A    between atoms: C3_5  and  C11_13 
REMARK    5  A    between atoms: C4_6  and  C5_7 
REMARK    6  A    between atoms: C4_6  and  C6_8 
REMARK    7  A    between atoms: C6_8  and  C7_9 
REMARK    8  A    between atoms: C6_8  and  C10_12 
REMARK    9  A    between atoms: C7_9  and  C9_11 
REMARK   10  A    between atoms: C7_9  and  C11_13 
REMARK   11  A    between atoms: C9_11  and  C10_12 
REMARK   12  A    between atoms: C10_12  and  C11_13 
ROOT
HETATM    1  N1  UNL     1     -37.661  14.491  49.693  1.00  0.00     0.000 N 
HETATM    2  N2  UNL     1     -35.530  13.108  48.146  1.00  0.00    -0.158 N 
HETATM    3  C1  UNL     1     -38.452  14.669  49.544  1.00  0.00     0.005 A 
HETATM    4  C2  UNL     1     -38.898  15.070  50.110  1.00  0.00     0.001 A 
HETATM    5  C3  UNL     1     -39.690  15.248  49.960  1.00  0.00     0.001 A 
HETATM    6  C4  UNL     1     -38.797  14.445  48.829  1.00  0.00     0.005 A 
HETATM    7  C5  UNL     1     -37.214  14.089  49.128  1.00  0.00     0.039 A 
HETATM    8  C6  UNL     1     -40.035  15.024  49.244  1.00  0.00     0.001 A 
HETATM    9  C7  UNL     1     -40.137  15.649  50.525  1.00  0.00     0.000 A 
HETATM   10  C8  UNL     1     -36.423  13.911  49.278  1.00  0.00     0.048 A 
HETATM   11  C9  UNL     1     -40.827  15.202  49.095  1.00  0.00     0.000 A 
HETATM   12  C10 UNL     1     -40.929  15.827  50.376  1.00  0.00     0.000 A 
HETATM   13  C11 UNL     1     -41.273  15.604  49.661  1.00  0.00     0.000 A 
HETATM   14  C12 UNL     1     -35.976  13.510  48.712  1.00  0.00     0.058 A 
ENDROOT
TORSDOF 12
ENDMDL
