MODEL 1
REMARK VINA RESULT:     238.2      0.000      0.000
REMARK WARNING: 32 MAX_TORS EXCEEDED!!!
REMARK  42 active torsions:
REMARK  status: ('A' for Active; 'I' for Inactive)
REMARK    1  A    between atoms: O1_1  and  C6_10 
REMARK    2  A    between atoms: O2_2  and  C10_14 
REMARK    3  A    between atoms: O3_3  and  C17_21 
REMARK    4  A    between atoms: C1_5  and  C8_12 
REMARK    5  A    between atoms: C1_5  and  C9_13 
REMARK    6  A    between atoms: C1_5  and  C10_14 
REMARK    7  A    between atoms: C1_5  and  C13_17 
REMARK    8  A    between atoms: C2_6  and  C8_12 
REMARK    9  A    between atoms: C2_6  and  C9_13 
REMARK   10  A    between atoms: C2_6  and  C11_15 
REMARK   11  A    between atoms: C2_6  and  C12_16 
REMARK   12  A    between atoms: C3_7  and  C5_9 
REMARK   13  A    between atoms: C3_7  and  C6_10 
REMARK   14  A    between atoms: C3_7  and  C7_11 
REMARK   15  A    between atoms: C3_7  and  C10_14 
REMARK   16  A    between atoms: C4_8  and  C5_9 
REMARK   17  A    between atoms: C4_8  and  C6_10 
REMARK   18  A    between atoms: C4_8  and  C7_11 
REMARK   19  A    between atoms: C4_8  and  C12_16 
REMARK   20  A    between atoms: C5_9  and  C11_15 
REMARK   21  A    between atoms: C5_9  and  C6_10 
REMARK   22  A    between atoms: C5_9  and  C9_13 
REMARK   23  A    between atoms: C5_9  and  C12_16 
REMARK   24  A    between atoms: C5_9  and  C13_17 
REMARK   25  A    between atoms: C5_9  and  C15_19 
REMARK   26  A    between atoms: C6_10  and  C13_17 
REMARK   27  A    between atoms: C6_10  and  C9_13 
REMARK   28  A    between atoms: C6_10  and  C11_15 
REMARK   29  A    between atoms: C6_10  and  C16_20 
REMARK   30  A    between atoms: C6_10  and  C17_21 
REMARK   31  A    between atoms: C7_11  and  C8_12 
REMARK   32  A    between atoms: C8_12  and  C10_14 
REMARK   33  A    between atoms: C9_13  and  C12_16 
REMARK   34  A    between atoms: C9_13  and  C11_15 
REMARK   35  A    between atoms: C9_13  and  C15_19 
REMARK   36  A    between atoms: C11_15  and  C12_16 
REMARK   37  A    between atoms: C12_16  and  C13_17 
REMARK   38  A    between atoms: C12_16  and  C16_20 
REMARK   39  A    between atoms: C13_17  and  C15_19 
REMARK   40  A    between atoms: C13_17  and  C17_21 
REMARK   41  A    between atoms: C15_19  and  C16_20 
REMARK   42  A    between atoms: C16_20  and  C17_21 
ROOT
HETATM    1  O1  UNL     1     -38.685  12.456  50.517  1.00  0.00     0.000 OA
HETATM    2  O2  UNL     1     -40.660  11.633  50.521  1.00  0.00     0.000 OA
HETATM    3  O3  UNL     1     -36.679  12.867  50.513  1.00  0.00     0.000 OA
HETATM    4  N1  UNL     1     -40.526  15.453  50.517  1.00  0.00     0.000 N 
HETATM    5  C1  UNL     1     -39.497  13.529  50.517  1.00  0.00     0.000 A 
HETATM    6  C2  UNL     1     -40.103  14.088  50.517  1.00  0.00     0.000 A 
HETATM    7  C3  UNL     1     -39.680  12.723  50.518  1.00  0.00     0.000 A 
HETATM    8  C4  UNL     1     -39.920  14.894  50.516  1.00  0.00     0.000 A 
HETATM    9  C5  UNL     1     -39.060  14.162  50.516  1.00  0.00     0.000 A 
HETATM   10  C6  UNL     1     -38.709  13.773  50.515  1.00  0.00     0.000 A 
HETATM   11  C7  UNL     1     -40.891  13.844  50.519  1.00  0.00     0.000 A 
HETATM   12  C8  UNL     1     -40.468  12.479  50.519  1.00  0.00     0.000 A 
HETATM   13  C9  UNL     1     -39.132  15.138  50.515  1.00  0.00     0.000 A 
HETATM   14  C10 UNL     1     -41.073  13.040  50.520  1.00  0.00     0.000 A 
HETATM   15  C11 UNL     1     -39.408  15.284  50.515  1.00  0.00     0.000 A 
HETATM   16  C12 UNL     1     -38.527  14.577  50.514  1.00  0.00     0.000 A 
HETATM   17  C13 UNL     1     -38.104  13.212  50.515  1.00  0.00     0.000 A 
HETATM   18  C14 UNL     1     -41.307  15.830  50.517  1.00  0.00     0.000 A 
HETATM   19  C15 UNL     1     -37.739  14.821  50.513  1.00  0.00     0.000 A 
HETATM   20  C16 UNL     1     -37.316  13.456  50.514  1.00  0.00     0.000 A 
HETATM   21  C17 UNL     1     -37.133  14.261  50.513  1.00  0.00     0.000 A 
HETATM   22  C18 UNL     1     -35.851  13.124  50.512  1.00  0.00     0.000 A 
ENDROOT
TORSDOF 42
ENDMDL
