MODEL 1
REMARK VINA RESULT:     199.3      0.000      0.000
REMARK  23 active torsions:
REMARK  status: ('A' for Active; 'I' for Inactive)
REMARK    1  A    between atoms: BR1_1  and  C10_15 
REMARK    2  A    between atoms: O1_2  and  C5_10 
REMARK    3  A    between atoms: N1_3  and  C5_10 
REMARK    4  A    between atoms: N2_4  and  C6_11 
REMARK    5  A    between atoms: N2_4  and  C8_13 
REMARK    6  A    between atoms: N3_5  and  C14_19 
REMARK    7  A    between atoms: C1_6  and  C6_11 
REMARK    8  A    between atoms: C1_6  and  C7_12 
REMARK    9  A    between atoms: C1_6  and  C9_14 
REMARK   10  A    between atoms: C1_6  and  C11_16 
REMARK   11  A    between atoms: C2_7  and  C3_8 
REMARK   12  A    between atoms: C3_8  and  C4_9 
REMARK   13  A    between atoms: C3_8  and  C11_16 
REMARK   14  A    between atoms: C4_9  and  C6_11 
REMARK   15  A    between atoms: C4_9  and  C10_15 
REMARK   16  A    between atoms: C4_9  and  C11_16 
REMARK   17  A    between atoms: C5_10  and  C8_13 
REMARK   18  A    between atoms: C6_11  and  C14_19 
REMARK   19  A    between atoms: C7_12  and  C9_14 
REMARK   20  A    between atoms: C9_14  and  C10_15 
REMARK   21  A    between atoms: C11_16  and  C13_18 
REMARK   22  A    between atoms: C12_17  and  C13_18 
REMARK   23  A    between atoms: C13_18  and  C14_19 
ROOT
HETATM    1 BR1  UNL     1     -37.985  12.239  50.379  1.00  0.00    -0.185 Br
HETATM    2  O1  UNL     1     -41.320  15.581  50.502  1.00  0.00     0.000 OA
HETATM    3  N1  UNL     1     -40.499  14.451  50.460  1.00  0.00     0.000 N 
HETATM    4  N2  UNL     1     -39.131  15.700  50.511  1.00  0.00     0.000 N 
HETATM    5  N3  UNL     1     -37.537  15.779  50.517  1.00  0.00     0.000 N 
HETATM    6  C1  UNL     1     -39.031  14.219  50.454  1.00  0.00     0.016 A 
HETATM    7  C2  UNL     1     -39.822  13.982  50.443  1.00  0.00     0.016 A 
HETATM    8  C3  UNL     1     -38.724  14.984  50.484  1.00  0.00     0.009 A 
HETATM    9  C4  UNL     1     -38.397  13.639  50.433  1.00  0.00     0.025 A 
HETATM   10  C5  UNL     1     -39.946  15.830  50.515  1.00  0.00     0.001 A 
HETATM   11  C6  UNL     1     -37.901  15.038  50.488  1.00  0.00     0.007 A 
HETATM   12  C7  UNL     1     -40.032  13.149  50.411  1.00  0.00     0.019 A 
HETATM   13  C8  UNL     1     -40.555  15.274  50.492  1.00  0.00     0.002 A 
HETATM   14  C9  UNL     1     -38.588  12.802  50.400  1.00  0.00     0.039 A 
HETATM   15  C10 UNL     1     -39.411  12.555  50.389  1.00  0.00     0.039 A 
HETATM   16  C11 UNL     1     -37.441  14.354  50.462  1.00  0.00     0.007 A 
HETATM   17  C12 UNL     1     -36.618  14.409  50.466  1.00  0.00     0.002 A 
HETATM   18  C13 UNL     1     -36.714  15.834  50.521  1.00  0.00     0.002 A 
HETATM   19  C14 UNL     1     -36.254  15.149  50.495  1.00  0.00     0.002 A 
ENDROOT
TORSDOF 23
ENDMDL
