MODEL 1
REMARK VINA RESULT:     236.5      0.000      0.000
REMARK  28 active torsions:
REMARK  status: ('A' for Active; 'I' for Inactive)
REMARK    1  A    between atoms: CL1_1  and  C11_16 
REMARK    2  A    between atoms: F1_2  and  C7_12 
REMARK    3  A    between atoms: O1_3  and  C4_9 
REMARK    4  A    between atoms: O1_3  and  C9_14 
REMARK    5  A    between atoms: N1_4  and  C4_9 
REMARK    6  A    between atoms: N2_5  and  C6_11 
REMARK    7  A    between atoms: C1_6  and  C5_10 
REMARK    8  A    between atoms: C1_6  and  C8_13 
REMARK    9  A    between atoms: C1_6  and  C10_15 
REMARK   10  A    between atoms: C2_7  and  C3_8 
REMARK   11  A    between atoms: C3_8  and  C7_12 
REMARK   12  A    between atoms: C3_8  and  C12_17 
REMARK   13  A    between atoms: C4_9  and  C6_11 
REMARK   14  A    between atoms: C5_10  and  C7_12 
REMARK   15  A    between atoms: C5_10  and  C14_19 
REMARK   16  A    between atoms: C5_10  and  C16_21 
REMARK   17  A    between atoms: C6_11  and  C9_14 
REMARK   18  A    between atoms: C7_12  and  C11_16 
REMARK   19  A    between atoms: C7_12  and  C12_17 
REMARK   20  A    between atoms: C8_13  and  C9_14 
REMARK   21  A    between atoms: C8_13  and  C10_15 
REMARK   22  A    between atoms: C10_15  and  C11_16 
REMARK   23  A    between atoms: C12_17  and  C13_18 
REMARK   24  A    between atoms: C12_17  and  C15_20 
REMARK   25  A    between atoms: C13_18  and  C14_19 
REMARK   26  A    between atoms: C13_18  and  C16_21 
REMARK   27  A    between atoms: C14_19  and  C15_20 
REMARK   28  A    between atoms: C15_20  and  C16_21 
ROOT
HETATM    1 CL1  UNL     1     -41.112  14.866  50.024  1.00  0.00    -0.231 Cl
HETATM    2  F1  UNL     1     -40.625  13.921  49.133  1.00  0.00    -0.583 F 
HETATM    3  O1  UNL     1     -37.004  14.950  47.697  1.00  0.00     0.000 OA
HETATM    4  N1  UNL     1     -38.155  15.115  48.471  1.00  0.00     0.000 N 
HETATM    5  N2  UNL     1     -38.645  13.496  47.712  1.00  0.00     0.000 N 
HETATM    6  C1  UNL     1     -39.399  14.329  48.685  1.00  0.00     0.054 A 
HETATM    7  C2  UNL     1     -38.895  14.971  48.806  1.00  0.00     0.059 A 
HETATM    8  C3  UNL     1     -39.287  13.673  48.198  1.00  0.00     0.066 A 
HETATM    9  C4  UNL     1     -37.955  13.932  47.592  1.00  0.00     0.009 A 
HETATM   10  C5  UNL     1     -39.900  13.121  48.197  1.00  0.00     0.043 A 
HETATM   11  C6  UNL     1     -37.737  14.652  47.930  1.00  0.00     0.007 A 
HETATM   12  C7  UNL     1     -40.155  14.279  49.091  1.00  0.00     0.059 A 
HETATM   13  C8  UNL     1     -39.112  15.607  49.342  1.00  0.00     0.066 A 
HETATM   14  C9  UNL     1     -37.785  15.814  48.706  1.00  0.00     0.013 A 
HETATM   15  C10 UNL     1     -40.389  14.906  49.631  1.00  0.00     0.082 A 
HETATM   16  C11 UNL     1     -39.864  15.574  49.757  1.00  0.00     0.098 A 
HETATM   17  C12 UNL     1     -40.569  13.245  48.665  1.00  0.00     0.043 A 
HETATM   18  C13 UNL     1     -39.844  12.444  47.728  1.00  0.00     0.060 A 
HETATM   19  C14 UNL     1     -41.181  12.692  48.663  1.00  0.00     0.039 A 
HETATM   20  C15 UNL     1     -40.457  11.891  47.728  1.00  0.00     0.058 A 
HETATM   21  C16 UNL     1     -41.125  12.015  48.195  1.00  0.00     0.058 A 
ENDROOT
TORSDOF 28
ENDMDL
