MODEL 1
REMARK VINA RESULT:      45.2      0.000      0.000
REMARK  12 active torsions:
REMARK  status: ('A' for Active; 'I' for Inactive)
REMARK    1  A    between atoms: C1_2  and  C5_6 
REMARK    2  A    between atoms: C2_3  and  C4_5 
REMARK    3  A    between atoms: C3_4  and  C4_5 
REMARK    4  A    between atoms: C3_4  and  C10_11 
REMARK    5  A    between atoms: C4_5  and  C5_6 
REMARK    6  A    between atoms: C4_5  and  C7_8 
REMARK    7  A    between atoms: C5_6  and  C6_7 
REMARK    8  A    between atoms: C5_6  and  C9_10 
REMARK    9  A    between atoms: C6_7  and  C8_9 
REMARK   10  A    between atoms: C6_7  and  C10_11 
REMARK   11  A    between atoms: C8_9  and  C9_10 
REMARK   12  A    between atoms: C9_10  and  C10_11 
ROOT
HETATM    1  N1  UNL     1     -40.998  12.920  47.531  1.00  0.00    -0.012 N 
HETATM    2  C1  UNL     1     -41.057  13.344  48.237  1.00  0.00     0.196 A 
HETATM    3  C2  UNL     1     -41.126  14.166  48.221  1.00  0.00     0.173 A 
HETATM    4  C3  UNL     1     -41.184  14.589  48.926  1.00  0.00     0.069 A 
HETATM    5  C4  UNL     1     -41.048  12.946  48.959  1.00  0.00     0.196 A 
HETATM    6  C5  UNL     1     -41.175  14.191  49.648  1.00  0.00     0.069 A 
HETATM    7  C6  UNL     1     -41.253  15.411  48.909  1.00  0.00     0.033 A 
HETATM    8  C7  UNL     1     -40.930  12.099  47.548  1.00  0.00     0.242 A 
HETATM    9  C8  UNL     1     -41.234  14.614  50.354  1.00  0.00     0.012 A 
HETATM   10  C9  UNL     1     -41.312  15.835  49.615  1.00  0.00     0.012 A 
HETATM   11  C10 UNL     1     -41.302  15.435  50.337  1.00  0.00     0.012 A 
ENDROOT
TORSDOF 12
ENDMDL
