MODEL 1
REMARK VINA RESULT:     279.5      0.000      0.000
REMARK  15 active torsions:
REMARK  status: ('A' for Active; 'I' for Inactive)
REMARK    1  A    between atoms: O1_1  and  C8_12 
REMARK    2  A    between atoms: O2_2  and  C4_8 
REMARK    3  A    between atoms: C1_5  and  C4_8 
REMARK    4  A    between atoms: C1_5  and  C6_10 
REMARK    5  A    between atoms: C4_8  and  C9_13 
REMARK    6  A    between atoms: C5_9  and  C6_10 
REMARK    7  A    between atoms: C7_11  and  C10_14 
REMARK    8  A    between atoms: C7_11  and  C12_16 
REMARK    9  A    between atoms: C8_12  and  C9_13 
REMARK   10  A    between atoms: C8_12  and  C11_15 
REMARK   11  A    between atoms: C9_13  and  C10_14 
REMARK   12  A    between atoms: C9_13  and  C12_16 
REMARK   13  A    between atoms: C10_14  and  C11_15 
REMARK   14  A    between atoms: C10_14  and  C13_17 
REMARK   15  A    between atoms: C11_15  and  C12_16 
ROOT
HETATM    1  O1  UNL     1     -38.259  13.926  49.338  1.00  0.00     0.000 OA
HETATM    2  O2  UNL     1     -37.966  12.669  50.366  1.00  0.00     0.000 OA
HETATM    3  O3  UNL     1     -39.540  14.931  49.607  1.00  0.00     0.000 OA
HETATM    4  N1  UNL     1     -36.685  11.664  50.096  1.00  0.00     0.000 N 
HETATM    5  C1  UNL     1     -36.831  12.293  49.582  1.00  0.00     0.000 A 
HETATM    6  C2  UNL     1     -37.472  12.795  49.718  1.00  0.00     0.000 A 
HETATM    7  C3  UNL     1     -36.045  11.162  49.962  1.00  0.00     0.000 A 
HETATM    8  C4  UNL     1     -37.618  13.423  49.204  1.00  0.00     0.000 A 
HETATM    9  C5  UNL     1     -35.898  10.533  50.476  1.00  0.00     0.000 A 
HETATM   10  C6  UNL     1     -35.551  11.288  49.314  1.00  0.00     0.000 A 
HETATM   11  C7  UNL     1     -38.406  14.555  48.824  1.00  0.00     0.001 A 
HETATM   12  C8  UNL     1     -39.046  15.057  48.959  1.00  0.00     0.003 A 
HETATM   13  C9  UNL     1     -37.911  14.681  48.176  1.00  0.00     0.001 A 
HETATM   14  C10 UNL     1     -39.192  15.685  48.445  1.00  0.00     0.003 A 
HETATM   15  C11 UNL     1     -38.057  15.309  47.662  1.00  0.00     0.001 A 
HETATM   16  C12 UNL     1     -38.698  15.812  47.796  1.00  0.00     0.001 A 
HETATM   17  C13 UNL     1     -40.180  15.433  49.742  1.00  0.00     0.018 A 
HETATM   18  C14 UNL     1     -40.674  15.307  50.390  1.00  0.00     0.025 A 
HETATM   19  C15 UNL     1     -41.315  15.809  50.525  1.00  0.00    -0.051 A 
ENDROOT
TORSDOF 15
ENDMDL
