MODEL 1
REMARK VINA RESULT:     226.6      0.000      0.000
REMARK  22 active torsions:
REMARK  status: ('A' for Active; 'I' for Inactive)
REMARK    1  A    between atoms: S1_1  and  N2_5 
REMARK    2  A    between atoms: O1_2  and  C2_9 
REMARK    3  A    between atoms: O2_3  and  N2_5 
REMARK    4  A    between atoms: O2_3  and  C1_8 
REMARK    5  A    between atoms: O2_3  and  C3_10 
REMARK    6  A    between atoms: O2_3  and  C4_11 
REMARK    7  A    between atoms: N2_5  and  N3_6 
REMARK    8  A    between atoms: N3_6  and  C10_17 
REMARK    9  A    between atoms: N4_7  and  C7_14 
REMARK   10  A    between atoms: C1_8  and  C5_12 
REMARK   11  A    between atoms: C2_9  and  C3_10 
REMARK   12  A    between atoms: C2_9  and  C5_12 
REMARK   13  A    between atoms: C2_9  and  C7_14 
REMARK   14  A    between atoms: C3_10  and  C5_12 
REMARK   15  A    between atoms: C3_10  and  C6_13 
REMARK   16  A    between atoms: C4_11  and  C10_17 
REMARK   17  A    between atoms: C5_12  and  C7_14 
REMARK   18  A    between atoms: C6_13  and  C7_14 
REMARK   19  A    between atoms: C8_15  and  C9_16 
REMARK   20  A    between atoms: C9_16  and  C10_17 
REMARK   21  A    between atoms: C10_17  and  C11_18 
REMARK   22  A    between atoms: C10_17  and  C12_19 
ROOT
HETATM    1  S1  UNL     1     -38.174  13.880  50.498  1.00  0.00    -0.201 SA
HETATM    2  O1  UNL     1     -37.737  14.579  50.523  1.00  0.00     0.000 OA
HETATM    3  O2  UNL     1     -38.612  13.181  50.473  1.00  0.00     0.000 OA
HETATM    4  N1  UNL     1     -37.475  13.442  50.513  1.00  0.00     0.000 N 
HETATM    5  N2  UNL     1     -38.233  12.232  50.469  1.00  0.00     0.000 N 
HETATM    6  N3  UNL     1     -36.806  12.181  50.513  1.00  0.00     0.000 N 
HETATM    7  N4  UNL     1     -40.970  15.633  50.438  1.00  0.00    -0.273 NA
HETATM    8  C1  UNL     1     -38.873  14.318  50.483  1.00  0.00     0.066 A 
HETATM    9  C2  UNL     1     -38.844  15.143  50.497  1.00  0.00     0.066 A 
HETATM   10  C3  UNL     1     -39.602  13.933  50.454  1.00  0.00     0.066 A 
HETATM   11  C4  UNL     1     -37.505  12.619  50.498  1.00  0.00     0.025 A 
HETATM   12  C5  UNL     1     -40.271  15.195  50.453  1.00  0.00     0.074 A 
HETATM   13  C6  UNL     1     -39.543  15.581  50.482  1.00  0.00     0.074 A 
HETATM   14  C7  UNL     1     -40.301  14.371  50.439  1.00  0.00     0.074 A 
HETATM   15  C8  UNL     1     -38.263  11.407  50.455  1.00  0.00     0.009 A 
HETATM   16  C9  UNL     1     -36.835  11.356  50.499  1.00  0.00     0.009 A 
HETATM   17  C10 UNL     1     -37.565  10.969  50.470  1.00  0.00     0.008 A 
HETATM   18  C11 UNL     1     -38.991  11.021  50.426  1.00  0.00     0.002 A 
HETATM   19  C12 UNL     1     -36.136  10.917  50.514  1.00  0.00     0.002 A 
ENDROOT
TORSDOF 22
ENDMDL
