MODEL 1
REMARK VINA RESULT:     474.8      0.000      0.000
REMARK WARNING: 32 MAX_TORS EXCEEDED!!!
REMARK  49 active torsions:
REMARK  status: ('A' for Active; 'I' for Inactive)
REMARK    1  A    between atoms: CL1_1  and  C13_19 
REMARK    2  A    between atoms: CL1_1  and  C16_22 
REMARK    3  A    between atoms: CL1_1  and  C19_25 
REMARK    4  A    between atoms: O1_2  and  C8_14 
REMARK    5  A    between atoms: O1_2  and  C10_16 
REMARK    6  A    between atoms: O1_2  and  C12_18 
REMARK    7  A    between atoms: O1_2  and  C13_19 
REMARK    8  A    between atoms: O1_2  and  C18_24 
REMARK    9  A    between atoms: O3_4  and  C4_10 
REMARK   10  A    between atoms: O3_4  and  C14_20 
REMARK   11  A    between atoms: N1_5  and  C6_12 
REMARK   12  A    between atoms: N1_5  and  C7_13 
REMARK   13  A    between atoms: N1_5  and  C10_16 
REMARK   14  A    between atoms: N2_6  and  C4_10 
REMARK   15  A    between atoms: C1_7  and  C5_11 
REMARK   16  A    between atoms: C1_7  and  C6_12 
REMARK   17  A    between atoms: C2_8  and  C3_9 
REMARK   18  A    between atoms: C2_8  and  C11_17 
REMARK   19  A    between atoms: C2_8  and  C13_19 
REMARK   20  A    between atoms: C2_8  and  C15_21 
REMARK   21  A    between atoms: C3_9  and  C8_14 
REMARK   22  A    between atoms: C3_9  and  C9_15 
REMARK   23  A    between atoms: C3_9  and  C20_26 
REMARK   24  A    between atoms: C4_10  and  C7_13 
REMARK   25  A    between atoms: C4_10  and  C6_12 
REMARK   26  A    between atoms: C5_11  and  C8_14 
REMARK   27  A    between atoms: C6_12  and  C9_15 
REMARK   28  A    between atoms: C7_13  and  C14_20 
REMARK   29  A    between atoms: C8_14  and  C13_19 
REMARK   30  A    between atoms: C8_14  and  C16_22 
REMARK   31  A    between atoms: C8_14  and  C19_25 
REMARK   32  A    between atoms: C9_15  and  C10_16 
REMARK   33  A    between atoms: C9_15  and  C12_18 
REMARK   34  A    between atoms: C9_15  and  C18_24 
REMARK   35  A    between atoms: C10_16  and  C12_18 
REMARK   36  A    between atoms: C10_16  and  C17_23 
REMARK   37  A    between atoms: C11_17  and  C14_20 
REMARK   38  A    between atoms: C11_17  and  C15_21 
REMARK   39  A    between atoms: C12_18  and  C13_19 
REMARK   40  A    between atoms: C12_18  and  C17_23 
REMARK   41  A    between atoms: C12_18  and  C19_25 
REMARK   42  A    between atoms: C13_19  and  C15_21 
REMARK   43  A    between atoms: C13_19  and  C18_24 
REMARK   44  A    between atoms: C13_19  and  C20_26 
REMARK   45  A    between atoms: C15_21  and  C16_22 
REMARK   46  A    between atoms: C15_21  and  C19_25 
REMARK   47  A    between atoms: C17_23  and  C18_24 
REMARK   48  A    between atoms: C18_24  and  C19_25 
REMARK   49  A    between atoms: C19_25  and  C20_26 
ROOT
HETATM    1 CL1  UNL     1     -37.619  11.577  50.503  1.00  0.00    -0.311 Cl
HETATM    2  O1  UNL     1     -39.786  12.969  49.602  1.00  0.00     0.000 OA
HETATM    3  O3  UNL     1     -38.049  15.683  48.210  1.00  0.00     0.000 OA
HETATM    4  N1  UNL     1     -39.541  14.241  48.915  1.00  0.00     0.000 N 
HETATM    5  N2  UNL     1     -37.707  14.506  48.881  1.00  0.00     0.000 N 
HETATM    6  C1  UNL     1     -39.252  13.572  49.302  1.00  0.00     0.037 A 
HETATM    7  C2  UNL     1     -38.468  13.369  49.462  1.00  0.00     0.028 A 
HETATM    8  C3  UNL     1     -39.387  12.856  49.689  1.00  0.00     0.029 A 
HETATM    9  C4  UNL     1     -39.120  14.872  48.593  1.00  0.00     0.029 A 
HETATM   10  C5  UNL     1     -37.781  13.785  49.274  1.00  0.00     0.021 A 
HETATM   11  C7  UNL     1     -38.303  14.989  48.577  1.00  0.00     0.005 A 
HETATM   12  C8  UNL     1     -38.431  12.618  49.879  1.00  0.00     0.027 A 
HETATM   13  C9  UNL     1     -40.635  13.065  49.498  1.00  0.00     0.048 A 
HETATM   14  C11 UNL     1     -37.008  13.479  49.490  1.00  0.00     0.023 A 
HETATM   15  C12 UNL     1     -40.158  12.582  49.793  1.00  0.00     0.037 A 
HETATM   16  C13 UNL     1     -38.750  12.414  49.972  1.00  0.00     0.023 A 
HETATM   17  C14 UNL     1     -36.936  14.779  48.777  1.00  0.00     0.004 A 
HETATM   18  C15 UNL     1     -37.665  12.296  50.103  1.00  0.00     0.032 A 
HETATM   19  C16 UNL     1     -36.949  12.729  49.908  1.00  0.00     0.035 A 
HETATM   20  C17 UNL     1     -41.155  12.492  49.782  1.00  0.00     0.033 A 
HETATM   21  C18 UNL     1     -40.292  11.866  50.181  1.00  0.00     0.025 A 
HETATM   22  C19 UNL     1     -38.885  11.698  50.359  1.00  0.00     0.025 A 
HETATM   23  C20 UNL     1     -39.656  11.424  50.463  1.00  0.00     0.022 A 
ENDROOT
BRANCH   6  24
HETATM   24  C6  UNL     1     -40.385  14.353  48.802  1.00  0.00     0.096 A 
HETATM   25  O2  UNL     1     -41.051  14.814  48.957  1.00  0.00    -0.363 OA
HETATM   26  C10 UNL     1     -40.154  14.189  47.990  1.00  0.00     0.096 A 
ENDBRANCH   6  24
TORSDOF 49
ENDMDL
