MODEL 1
REMARK VINA RESULT:     286.8      0.000      0.000
REMARK  32 active torsions:
REMARK  status: ('A' for Active; 'I' for Inactive)
REMARK    1  A    between atoms: CL1_1  and  C12_16 
REMARK    2  A    between atoms: O1_2  and  C1_5 
REMARK    3  A    between atoms: O1_2  and  C2_6 
REMARK    4  A    between atoms: O1_2  and  C4_8 
REMARK    5  A    between atoms: O1_2  and  C8_12 
REMARK    6  A    between atoms: N1_3  and  C8_12 
REMARK    7  A    between atoms: N2_4  and  C7_11 
REMARK    8  A    between atoms: C1_5  and  C6_10 
REMARK    9  A    between atoms: C2_6  and  C4_8 
REMARK   10  A    between atoms: C3_7  and  C4_8 
REMARK   11  A    between atoms: C4_8  and  C6_10 
REMARK   12  A    between atoms: C4_8  and  C9_13 
REMARK   13  A    between atoms: C5_9  and  C6_10 
REMARK   14  A    between atoms: C5_9  and  C10_14 
REMARK   15  A    between atoms: C7_11  and  C10_14 
REMARK   16  A    between atoms: C7_11  and  C9_13 
REMARK   17  A    between atoms: C7_11  and  C13_17 
REMARK   18  A    between atoms: C7_11  and  C14_18 
REMARK   19  A    between atoms: C7_11  and  C16_20 
REMARK   20  A    between atoms: C9_13  and  C14_18 
REMARK   21  A    between atoms: C10_14  and  C11_15 
REMARK   22  A    between atoms: C11_15  and  C12_16 
REMARK   23  A    between atoms: C11_15  and  C13_17 
REMARK   24  A    between atoms: C11_15  and  C16_20 
REMARK   25  A    between atoms: C12_16  and  C14_18 
REMARK   26  A    between atoms: C13_17  and  C19_23 
REMARK   27  A    between atoms: C15_19  and  C16_20 
REMARK   28  A    between atoms: C15_19  and  C18_22 
REMARK   29  A    between atoms: C16_20  and  C17_21 
REMARK   30  A    between atoms: C16_20  and  C19_23 
REMARK   31  A    between atoms: C17_21  and  C18_22 
REMARK   32  A    between atoms: C18_22  and  C19_23 
ROOT
HETATM    1 CL1  UNL     1     -37.180  15.598  50.322  1.00  0.00    -0.251 Cl
HETATM    2  O1  UNL     1     -38.641  11.111  50.523  1.00  0.00     0.000 OA
HETATM    3  N1  UNL     1     -38.008  12.355  50.458  1.00  0.00     0.000 N 
HETATM    4  N2  UNL     1     -39.743  13.007  50.506  1.00  0.00     0.000 N 
HETATM    5  C1  UNL     1     -37.369  11.077  50.474  1.00  0.00     0.000 A 
HETATM    6  C2  UNL     1     -37.822  10.389  50.514  1.00  0.00     0.000 A 
HETATM    7  C3  UNL     1     -36.999  10.340  50.483  1.00  0.00     0.000 A 
HETATM    8  C4  UNL     1     -37.320  11.900  50.446  1.00  0.00     0.004 A 
HETATM    9  C5  UNL     1     -37.898  13.172  50.428  1.00  0.00     0.020 A 
HETATM   10  C6  UNL     1     -38.716  11.933  50.500  1.00  0.00     0.002 A 
HETATM   11  C7  UNL     1     -38.468  13.768  50.431  1.00  0.00     0.022 A 
HETATM   12  C8  UNL     1     -39.488  12.223  50.521  1.00  0.00     0.001 A 
HETATM   13  C9  UNL     1     -37.060  13.362  50.389  1.00  0.00     0.025 A 
HETATM   14  C10 UNL     1     -39.289  13.694  50.466  1.00  0.00     0.012 A 
HETATM   15  C11 UNL     1     -38.241  14.596  50.396  1.00  0.00     0.033 A 
HETATM   16  C12 UNL     1     -36.814  14.185  50.352  1.00  0.00     0.052 A 
HETATM   17  C13 UNL     1     -39.712  14.403  50.460  1.00  0.00     0.010 A 
HETATM   18  C14 UNL     1     -37.408  14.806  50.356  1.00  0.00     0.052 A 
HETATM   19  C15 UNL     1     -40.536  14.391  50.493  1.00  0.00     0.003 A 
HETATM   20  C16 UNL     1     -39.312  15.123  50.421  1.00  0.00     0.010 A 
HETATM   21  C17 UNL     1     -40.959  15.099  50.487  1.00  0.00     0.002 A 
HETATM   22  C18 UNL     1     -39.734  15.831  50.415  1.00  0.00     0.002 A 
HETATM   23  C19 UNL     1     -40.558  15.819  50.448  1.00  0.00     0.002 A 
ENDROOT
TORSDOF 32
ENDMDL
