MODEL 1
REMARK VINA RESULT:     314.4      0.000      0.000
REMARK WARNING: 32 MAX_TORS EXCEEDED!!!
REMARK  34 active torsions:
REMARK  status: ('A' for Active; 'I' for Inactive)
REMARK    1  A    between atoms: CL1_1  and  C11_19 
REMARK    2  A    between atoms: S1_2  and  F3_5 
REMARK    3  A    between atoms: S1_2  and  C4_12 
REMARK    4  A    between atoms: S1_2  and  C6_14 
REMARK    5  A    between atoms: F1_3  and  C4_12 
REMARK    6  A    between atoms: F3_5  and  C4_12 
REMARK    7  A    between atoms: F4_6  and  N2_8 
REMARK    8  A    between atoms: N1_7  and  C6_14 
REMARK    9  A    between atoms: N2_8  and  C5_13 
REMARK   10  A    between atoms: C1_9  and  C3_11 
REMARK   11  A    between atoms: C1_9  and  C5_13 
REMARK   12  A    between atoms: C2_10  and  C7_15 
REMARK   13  A    between atoms: C2_10  and  C9_17 
REMARK   14  A    between atoms: C2_10  and  C12_20 
REMARK   15  A    between atoms: C2_10  and  C14_22 
REMARK   16  A    between atoms: C3_11  and  C8_16 
REMARK   17  A    between atoms: C3_11  and  C13_21 
REMARK   18  A    between atoms: C4_12  and  C10_18 
REMARK   19  A    between atoms: C4_12  and  C5_13 
REMARK   20  A    between atoms: C4_12  and  C7_15 
REMARK   21  A    between atoms: C5_13  and  C6_14 
REMARK   22  A    between atoms: C7_15  and  C12_20 
REMARK   23  A    between atoms: C8_16  and  C9_17 
REMARK   24  A    between atoms: C8_16  and  C11_19 
REMARK   25  A    between atoms: C8_16  and  C14_22 
REMARK   26  A    between atoms: C9_17  and  C15_23 
REMARK   27  A    between atoms: C9_17  and  C17_25 
REMARK   28  A    between atoms: C11_19  and  C12_20 
REMARK   29  A    between atoms: C13_21  and  C14_22 
REMARK   30  A    between atoms: C13_21  and  C16_24 
REMARK   31  A    between atoms: C14_22  and  C15_23 
REMARK   32  A    between atoms: C14_22  and  C17_25 
REMARK   33  A    between atoms: C15_23  and  C16_24 
REMARK   34  A    between atoms: C16_24  and  C17_25 
ROOT
HETATM    1 CL1  UNL     1     -41.325  14.149  50.517  1.00  0.00    -0.248 Cl
HETATM    2  S1  UNL     1     -36.648  13.059  50.509  1.00  0.00    -0.073 SA
HETATM    3  F4  UNL     1     -38.772  10.780  50.503  1.00  0.00    -0.484 F 
HETATM    4  N1  UNL     1     -37.985  13.894  50.513  1.00  0.00     0.000 N 
HETATM    5  N2  UNL     1     -38.326  12.072  50.507  1.00  0.00     0.000 N 
HETATM    6  C1  UNL     1     -38.809  13.861  50.514  1.00  0.00     0.085 A 
HETATM    7  C2  UNL     1     -39.298  13.197  50.512  1.00  0.00     0.056 A 
HETATM    8  C3  UNL     1     -39.082  12.401  50.509  1.00  0.00     0.063 A 
HETATM    9  C4  UNL     1     -37.657  14.651  50.516  1.00  0.00     0.198 A 
HETATM   10  C5  UNL     1     -37.446  13.271  50.511  1.00  0.00     0.118 A 
HETATM   11  C6  UNL     1     -37.597  12.460  50.508  1.00  0.00     0.079 A 
HETATM   12  C7  UNL     1     -39.142  14.654  50.517  1.00  0.00     0.082 A 
HETATM   13  C8  UNL     1     -40.153  13.278  50.513  1.00  0.00     0.061 A 
HETATM   14  C9  UNL     1     -39.707  11.861  50.508  1.00  0.00     0.059 A 
HETATM   15  C11 UNL     1     -39.996  14.754  50.518  1.00  0.00     0.066 A 
HETATM   16  C12 UNL     1     -40.505  14.062  50.516  1.00  0.00     0.062 A 
HETATM   17  C13 UNL     1     -39.551  11.051  50.505  1.00  0.00     0.070 A 
HETATM   18  C14 UNL     1     -40.485  12.132  50.509  1.00  0.00     0.067 A 
HETATM   19  C15 UNL     1     -40.175  10.511  50.503  1.00  0.00     0.079 A 
HETATM   20  C16 UNL     1     -41.110  11.592  50.508  1.00  0.00     0.068 A 
HETATM   21  C17 UNL     1     -40.954  10.782  50.505  1.00  0.00     0.068 A 
ENDROOT
BRANCH   9  22
HETATM   22  C10 UNL     1     -36.994  15.143  50.517  1.00  0.00     0.381 A 
HETATM   23  F1  UNL     1     -37.486  15.805  50.510  1.00  0.00    -0.286 F 
HETATM   24  F2  UNL     1     -36.332  15.634  50.518  1.00  0.00    -0.230 F 
HETATM   25  F3  UNL     1     -36.502  14.480  50.524  1.00  0.00    -0.341 F 
ENDBRANCH   9  22
TORSDOF 34
ENDMDL
