MODEL 1
REMARK VINA RESULT:     350.8      0.000      0.000
REMARK  32 active torsions:
REMARK  status: ('A' for Active; 'I' for Inactive)
REMARK    1  A    between atoms: CL1_1  and  C11_18 
REMARK    2  A    between atoms: F1_2  and  C8_15 
REMARK    3  A    between atoms: O1_3  and  C5_12 
REMARK    4  A    between atoms: O2_4  and  C3_10 
REMARK    5  A    between atoms: O2_4  and  C6_13 
REMARK    6  A    between atoms: O2_4  and  C10_17 
REMARK    7  A    between atoms: N1_5  and  C6_13 
REMARK    8  A    between atoms: N2_6  and  C5_12 
REMARK    9  A    between atoms: C1_8  and  C4_11 
REMARK   10  A    between atoms: C1_8  and  C5_12 
REMARK   11  A    between atoms: C2_9  and  C7_14 
REMARK   12  A    between atoms: C2_9  and  C9_16 
REMARK   13  A    between atoms: C2_9  and  C12_19 
REMARK   14  A    between atoms: C3_10  and  C5_12 
REMARK   15  A    between atoms: C3_10  and  C7_14 
REMARK   16  A    between atoms: C4_11  and  C8_15 
REMARK   17  A    between atoms: C4_11  and  C13_20 
REMARK   18  A    between atoms: C5_12  and  C6_13 
REMARK   19  A    between atoms: C5_12  and  C10_17 
REMARK   20  A    between atoms: C7_14  and  C12_19 
REMARK   21  A    between atoms: C8_15  and  C9_16 
REMARK   22  A    between atoms: C8_15  and  C11_18 
REMARK   23  A    between atoms: C8_15  and  C13_20 
REMARK   24  A    between atoms: C9_16  and  C15_22 
REMARK   25  A    between atoms: C9_16  and  C17_24 
REMARK   26  A    between atoms: C11_18  and  C12_19 
REMARK   27  A    between atoms: C13_20  and  C14_21 
REMARK   28  A    between atoms: C13_20  and  C16_23 
REMARK   29  A    between atoms: C14_21  and  C15_22 
REMARK   30  A    between atoms: C14_21  and  C17_24 
REMARK   31  A    between atoms: C15_22  and  C16_23 
REMARK   32  A    between atoms: C16_23  and  C17_24 
ROOT
HETATM    1 CL1  UNL     1     -41.313  14.177  50.523  1.00  0.00    -0.231 Cl
HETATM    2  F1  UNL     1     -40.736  12.916  50.523  1.00  0.00    -0.583 F 
HETATM    3  O1  UNL     1     -37.125  11.628  50.522  1.00  0.00     0.000 OA
HETATM    4  O2  UNL     1     -36.712  13.111  50.522  1.00  0.00     0.000 OA
HETATM    5  N1  UNL     1     -38.007  13.635  50.522  1.00  0.00     0.000 N 
HETATM    6  N2  UNL     1     -38.504  11.848  50.522  1.00  0.00     0.000 N 
HETATM    7  N3  UNL     1     -36.005  15.835  50.521  1.00  0.00    -0.158 N 
HETATM    8  C1  UNL     1     -38.832  13.673  50.522  1.00  0.00     0.063 A 
HETATM    9  C2  UNL     1     -39.375  13.053  50.523  1.00  0.00     0.055 A 
HETATM   10  C3  UNL     1     -37.615  14.360  50.522  1.00  0.00     0.047 A 
HETATM   11  C4  UNL     1     -39.230  12.241  50.523  1.00  0.00     0.066 A 
HETATM   12  C5  UNL     1     -37.524  12.967  50.522  1.00  0.00     0.017 A 
HETATM   13  C6  UNL     1     -37.745  12.172  50.522  1.00  0.00     0.010 A 
HETATM   14  C7  UNL     1     -39.095  14.492  50.522  1.00  0.00     0.070 A 
HETATM   15  C8  UNL     1     -40.220  13.208  50.523  1.00  0.00     0.059 A 
HETATM   16  C9  UNL     1     -39.898  11.758  50.523  1.00  0.00     0.043 A 
HETATM   17  C10 UNL     1     -36.790  14.383  50.521  1.00  0.00     0.043 A 
HETATM   18  C11 UNL     1     -39.937  14.665  50.522  1.00  0.00     0.098 A 
HETATM   19  C12 UNL     1     -40.503  14.020  50.523  1.00  0.00     0.082 A 
HETATM   20  C13 UNL     1     -40.652  12.095  50.523  1.00  0.00     0.043 A 
HETATM   21  C14 UNL     1     -39.814  10.937  50.523  1.00  0.00     0.060 A 
HETATM   22  C15 UNL     1     -41.320  11.611  50.524  1.00  0.00     0.039 A 
HETATM   23  C16 UNL     1     -40.482  10.454  50.523  1.00  0.00     0.058 A 
HETATM   24  C17 UNL     1     -41.235  10.791  50.524  1.00  0.00     0.058 A 
HETATM   25  C18 UNL     1     -36.398  15.109  50.521  1.00  0.00     0.058 A 
ENDROOT
TORSDOF 32
ENDMDL
