MODEL 1
REMARK VINA RESULT:     237.1      0.000      0.000
REMARK  25 active torsions:
REMARK  status: ('A' for Active; 'I' for Inactive)
REMARK    1  A    between atoms: O1_1  and  C7_13 
REMARK    2  A    between atoms: N1_4  and  C7_13 
REMARK    3  A    between atoms: N2_5  and  C9_15 
REMARK    4  A    between atoms: N3_6  and  C5_11 
REMARK    5  A    between atoms: N3_6  and  C10_16 
REMARK    6  A    between atoms: C1_7  and  C4_10 
REMARK    7  A    between atoms: C1_7  and  C6_12 
REMARK    8  A    between atoms: C1_7  and  C8_14 
REMARK    9  A    between atoms: C1_7  and  C12_18 
REMARK   10  A    between atoms: C2_8  and  C3_9 
REMARK   11  A    between atoms: C3_9  and  C5_11 
REMARK   12  A    between atoms: C4_10  and  C5_11 
REMARK   13  A    between atoms: C4_10  and  C15_21 
REMARK   14  A    between atoms: C5_11  and  C8_14 
REMARK   15  A    between atoms: C5_11  and  C10_16 
REMARK   16  A    between atoms: C5_11  and  C12_18 
REMARK   17  A    between atoms: C6_12  and  C8_14 
REMARK   18  A    between atoms: C7_13  and  C9_15 
REMARK   19  A    between atoms: C8_14  and  C10_16 
REMARK   20  A    between atoms: C11_17  and  C12_18 
REMARK   21  A    between atoms: C11_17  and  C14_20 
REMARK   22  A    between atoms: C12_18  and  C13_19 
REMARK   23  A    between atoms: C12_18  and  C15_21 
REMARK   24  A    between atoms: C13_19  and  C14_20 
REMARK   25  A    between atoms: C14_20  and  C15_21 
ROOT
HETATM    1  O1  UNL     1     -41.326  15.834  50.364  1.00  0.00     0.000 OA
HETATM    2  N1  UNL     1     -41.101  14.654  49.651  1.00  0.00     0.000 N 
HETATM    3  N2  UNL     1     -39.479  15.453  49.245  1.00  0.00     0.000 N 
HETATM    4  C1  UNL     1     -39.988  14.121  48.821  1.00  0.00     0.041 A 
HETATM    5  C2  UNL     1     -40.732  14.088  49.177  1.00  0.00     0.016 A 
HETATM    6  C3  UNL     1     -39.430  14.729  48.851  1.00  0.00     0.009 A 
HETATM    7  C4  UNL     1     -38.732  14.595  48.433  1.00  0.00     0.008 A 
HETATM    8  C5  UNL     1     -39.698  13.468  48.343  1.00  0.00     0.041 A 
HETATM    9  C6  UNL     1     -41.237  13.400  49.079  1.00  0.00     0.053 A 
HETATM   10  C7  UNL     1     -40.097  15.748  49.705  1.00  0.00     0.000 A 
HETATM   11  C9  UNL     1     -40.819  15.392  49.886  1.00  0.00     0.001 A 
HETATM   12  C10 UNL     1     -40.963  12.738  48.605  1.00  0.00     0.053 A 
HETATM   13  C11 UNL     1     -38.138  15.167  48.427  1.00  0.00     0.001 A 
HETATM   14  C12 UNL     1     -38.628  13.887  48.021  1.00  0.00     0.008 A 
HETATM   15  C13 UNL     1     -37.440  15.033  48.009  1.00  0.00     0.001 A 
HETATM   16  C14 UNL     1     -37.930  13.754  47.603  1.00  0.00     0.001 A 
HETATM   17  C15 UNL     1     -37.336  14.326  47.596  1.00  0.00     0.001 A 
ENDROOT
BRANCH   4  18
HETATM   18  C8  UNL     1     -40.189  12.772  48.235  1.00  0.00     0.172 A 
HETATM   19  N3  UNL     1     -40.314  11.961  48.325  1.00  0.00     0.000 N 
HETATM   20  O2  UNL     1     -40.382  11.478  47.660  1.00  0.00    -0.202 OA
HETATM   21  O3  UNL     1     -40.370  11.634  49.080  1.00  0.00    -0.202 OA
ENDBRANCH   4  18
TORSDOF 25
ENDMDL
