MODEL 1
REMARK VINA RESULT:     277.5      0.000      0.000
REMARK  13 active torsions:
REMARK  status: ('A' for Active; 'I' for Inactive)
REMARK    1  A    between atoms: S1_1  and  C6_14 
REMARK    2  A    between atoms: S1_1  and  C11_19 
REMARK    3  A    between atoms: N1_6  and  C7_15 
REMARK    4  A    between atoms: N1_6  and  C9_17 
REMARK    5  A    between atoms: C1_9  and  C5_13 
REMARK    6  A    between atoms: C1_9  and  C7_15 
REMARK    7  A    between atoms: C2_10  and  C3_11 
REMARK    8  A    between atoms: C2_10  and  C8_16 
REMARK    9  A    between atoms: C3_11  and  C6_14 
REMARK   10  A    between atoms: C4_12  and  C5_13 
REMARK   11  A    between atoms: C4_12  and  C6_14 
REMARK   12  A    between atoms: C6_14  and  C7_15 
REMARK   13  A    between atoms: C7_15  and  C9_17 
ROOT
HETATM    1  S1  UNL     1     -38.800  14.364  49.262  1.00  0.00    -0.126 SA
HETATM    2  O1  UNL     1     -38.864  10.828  48.012  1.00  0.00     0.000 OA
HETATM    3  O2  UNL     1     -41.322  12.166  47.804  1.00  0.00    -0.362 OA
HETATM    4  O3  UNL     1     -40.286  15.045  49.092  1.00  0.00     0.000 OA
HETATM    5  O4  UNL     1     -41.307  14.222  48.525  1.00  0.00    -0.346 OA
HETATM    6  N1  UNL     1     -40.150  12.952  48.399  1.00  0.00     0.000 N 
HETATM    7  N2  UNL     1     -36.808  14.882  49.988  1.00  0.00     0.116 N 
HETATM    8  N3  UNL     1     -35.615  15.462  50.517  1.00  0.00    -0.068 NA
HETATM    9  C1  UNL     1     -39.456  12.508  48.435  1.00  0.00     0.088 A 
HETATM   10  C2  UNL     1     -39.851  11.858  48.100  1.00  0.00     0.095 A 
HETATM   11  C3  UNL     1     -38.866  12.983  48.762  1.00  0.00     0.080 A 
HETATM   12  C4  UNL     1     -40.551  12.306  48.064  1.00  0.00     0.123 A 
HETATM   13  C5  UNL     1     -39.638  11.088  47.890  1.00  0.00     0.058 A 
HETATM   14  C6  UNL     1     -39.989  13.702  48.705  1.00  0.00     0.116 A 
HETATM   15  C7  UNL     1     -39.195  13.720  48.929  1.00  0.00     0.110 A 
HETATM   16  C8  UNL     1     -40.198  10.581  47.560  1.00  0.00     0.031 A 
HETATM   17  C9  UNL     1     -40.527  14.323  48.774  1.00  0.00     0.149 A 
HETATM   18  C10 UNL     1     -38.002  14.301  49.458  1.00  0.00     0.259 A 
HETATM   19  C11 UNL     1     -37.608  14.945  49.791  1.00  0.00     0.297 A 
HETATM   20  C12 UNL     1     -36.413  15.525  50.321  1.00  0.00     0.381 A 
ENDROOT
TORSDOF 13
ENDMDL
