MODEL 1
REMARK VINA RESULT:     417.9      0.000      0.000
REMARK  32 active torsions:
REMARK  status: ('A' for Active; 'I' for Inactive)
REMARK    1  A    between atoms: S1_1  and  C3_12 
REMARK    2  A    between atoms: S1_1  and  C4_13 
REMARK    3  A    between atoms: S1_1  and  C5_14 
REMARK    4  A    between atoms: O3_4  and  C6_15 
REMARK    5  A    between atoms: O6_7  and  N2_9 
REMARK    6  A    between atoms: N1_8  and  C5_14 
REMARK    7  A    between atoms: N1_8  and  C2_11 
REMARK    8  A    between atoms: N1_8  and  C4_13 
REMARK    9  A    between atoms: N1_8  and  C8_17 
REMARK   10  A    between atoms: N2_9  and  C5_14 
REMARK   11  A    between atoms: N2_9  and  C10_19 
REMARK   12  A    between atoms: C1_10  and  C5_14 
REMARK   13  A    between atoms: C2_11  and  C3_12 
REMARK   14  A    between atoms: C2_11  and  C8_17 
REMARK   15  A    between atoms: C3_12  and  C5_14 
REMARK   16  A    between atoms: C3_12  and  C6_15 
REMARK   17  A    between atoms: C3_12  and  C7_16 
REMARK   18  A    between atoms: C6_15  and  C7_16 
REMARK   19  A    between atoms: C6_15  and  C8_17 
REMARK   20  A    between atoms: C9_18  and  C11_20 
REMARK   21  A    between atoms: C9_18  and  C12_21 
REMARK   22  A    between atoms: C10_19  and  C13_22 
REMARK   23  A    between atoms: C10_19  and  C14_23 
REMARK   24  A    between atoms: C10_19  and  C15_24 
REMARK   25  A    between atoms: C11_20  and  C12_21 
REMARK   26  A    between atoms: C11_20  and  C14_23 
REMARK   27  A    between atoms: C12_21  and  C13_22 
REMARK   28  A    between atoms: C12_21  and  C15_24 
REMARK   29  A    between atoms: C13_22  and  C14_23 
REMARK   30  A    between atoms: C13_22  and  C16_25 
REMARK   31  A    between atoms: C14_23  and  C15_24 
REMARK   32  A    between atoms: C14_23  and  C17_26 
ROOT
HETATM    1  S1  UNL     1     -36.483  12.654  49.864  1.00  0.00    -0.162 SA
HETATM    2  O1  UNL     1     -38.595  11.685  48.374  1.00  0.00    -0.345 OA
HETATM    3  O2  UNL     1     -37.018  10.219  48.707  1.00  0.00    -0.355 OA
HETATM    4  O3  UNL     1     -35.771  10.275  49.403  1.00  0.00     0.000 OA
HETATM    5  O4  UNL     1     -39.392  12.858  48.359  1.00  0.00     0.000 OA
HETATM    6  O5  UNL     1     -40.577  13.555  47.966  1.00  0.00     0.000 OA
HETATM    7  O6  UNL     1     -38.584  14.888  49.521  1.00  0.00     0.000 OA
HETATM    8  N1  UNL     1     -37.285  11.863  49.147  1.00  0.00     0.000 N 
HETATM    9  N2  UNL     1     -38.396  13.524  49.137  1.00  0.00     0.000 N 
HETATM   10  C1  UNL     1     -37.203  12.621  49.462  1.00  0.00     0.100 A 
HETATM   11  C2  UNL     1     -36.120  11.916  49.798  1.00  0.00     0.080 A 
HETATM   12  C3  UNL     1     -36.616  11.427  49.355  1.00  0.00     0.103 A 
HETATM   13  C4  UNL     1     -37.939  12.838  49.140  1.00  0.00     0.122 A 
HETATM   14  C5  UNL     1     -38.022  12.074  48.823  1.00  0.00     0.140 A 
HETATM   15  C6  UNL     1     -35.578  11.299  49.872  1.00  0.00     0.078 A 
HETATM   16  C7  UNL     1     -35.482  12.191  50.242  1.00  0.00     0.064 A 
HETATM   17  C8  UNL     1     -36.468  10.641  49.155  1.00  0.00     0.135 A 
HETATM   18  C9  UNL     1     -39.123  13.534  48.747  1.00  0.00     0.030 A 
HETATM   19  C10 UNL     1     -39.580  14.221  48.744  1.00  0.00     0.003 A 
HETATM   20  C11 UNL     1     -40.306  14.231  48.353  1.00  0.00     0.003 A 
HETATM   21  C12 UNL     1     -39.311  14.898  49.131  1.00  0.00     0.003 A 
HETATM   22  C13 UNL     1     -40.764  14.918  48.350  1.00  0.00     0.000 A 
HETATM   23  C14 UNL     1     -39.768  15.585  49.128  1.00  0.00     0.000 A 
HETATM   24  C15 UNL     1     -40.494  15.595  48.737  1.00  0.00     0.000 A 
HETATM   25  C16 UNL     1     -41.303  13.565  47.575  1.00  0.00     0.000 A 
HETATM   26  C17 UNL     1     -38.314  15.565  49.909  1.00  0.00     0.000 A 
ENDROOT
TORSDOF 32
ENDMDL
