MODEL 1
REMARK VINA RESULT:     415.4      0.000      0.000
REMARK  28 active torsions:
REMARK  status: ('A' for Active; 'I' for Inactive)
REMARK    1  A    between atoms: S1_1  and  C3_13 
REMARK    2  A    between atoms: S1_1  and  C4_14 
REMARK    3  A    between atoms: S1_1  and  C5_15 
REMARK    4  A    between atoms: S2_2  and  C13_23 
REMARK    5  A    between atoms: O3_5  and  C6_16 
REMARK    6  A    between atoms: O4_6  and  C14_24 
REMARK    7  A    between atoms: O5_7  and  C13_23 
REMARK    8  A    between atoms: O6_8  and  N2_10 
REMARK    9  A    between atoms: N1_9  and  C5_15 
REMARK   10  A    between atoms: N1_9  and  C2_12 
REMARK   11  A    between atoms: N1_9  and  C4_14 
REMARK   12  A    between atoms: N1_9  and  C8_18 
REMARK   13  A    between atoms: N2_10  and  C5_15 
REMARK   14  A    between atoms: N2_10  and  C10_20 
REMARK   15  A    between atoms: C1_11  and  C5_15 
REMARK   16  A    between atoms: C2_12  and  C3_13 
REMARK   17  A    between atoms: C2_12  and  C8_18 
REMARK   18  A    between atoms: C3_13  and  C5_15 
REMARK   19  A    between atoms: C3_13  and  C6_16 
REMARK   20  A    between atoms: C3_13  and  C7_17 
REMARK   21  A    between atoms: C6_16  and  C7_17 
REMARK   22  A    between atoms: C6_16  and  C8_18 
REMARK   23  A    between atoms: C9_19  and  C12_22 
REMARK   24  A    between atoms: C10_20  and  C14_24 
REMARK   25  A    between atoms: C11_21  and  C12_22 
REMARK   26  A    between atoms: C11_21  and  C15_25 
REMARK   27  A    between atoms: C13_23  and  C15_25 
REMARK   28  A    between atoms: C13_23  and  C14_24 
ROOT
HETATM    1  S1  UNL     1     -39.144  14.953  48.128  1.00  0.00    -0.162 SA
HETATM    2  S2  UNL     1     -36.006  10.817  49.948  1.00  0.00    -0.206 SA
HETATM    3  O1  UNL     1     -38.906  12.945  50.006  1.00  0.00    -0.345 OA
HETATM    4  O2  UNL     1     -40.730  14.119  50.211  1.00  0.00    -0.355 OA
HETATM    5  O3  UNL     1     -41.258  15.228  49.481  1.00  0.00     0.000 OA
HETATM    6  O4  UNL     1     -37.659  12.416  49.586  1.00  0.00     0.000 OA
HETATM    7  O5  UNL     1     -35.437  12.490  47.790  1.00  0.00     0.000 OA
HETATM    8  O6  UNL     1     -36.503  13.431  47.647  1.00  0.00     0.000 OA
HETATM    9  N1  UNL     1     -39.372  14.128  49.152  1.00  0.00     0.000 N 
HETATM   10  N2  UNL     1     -37.615  13.394  48.545  1.00  0.00     0.000 N 
HETATM   11  C1  UNL     1     -38.840  14.313  48.549  1.00  0.00     0.100 A 
HETATM   12  C2  UNL     1     -39.865  15.163  48.469  1.00  0.00     0.080 A 
HETATM   13  C3  UNL     1     -40.006  14.653  49.102  1.00  0.00     0.103 A 
HETATM   14  C4  UNL     1     -38.340  13.696  48.797  1.00  0.00     0.123 A 
HETATM   15  C5  UNL     1     -38.877  13.509  49.404  1.00  0.00     0.140 A 
HETATM   16  C6  UNL     1     -40.577  15.551  48.622  1.00  0.00     0.078 A 
HETATM   17  C7  UNL     1     -39.951  15.769  47.914  1.00  0.00     0.064 A 
HETATM   18  C8  UNL     1     -40.664  14.667  49.598  1.00  0.00     0.135 A 
HETATM   19  C9  UNL     1     -37.274  12.754  48.940  1.00  0.00     0.040 A 
HETATM   20  C10 UNL     1     -36.548  12.453  48.688  1.00  0.00     0.027 A 
HETATM   21  C11 UNL     1     -36.209  11.813  49.082  1.00  0.00     0.033 A 
HETATM   22  C12 UNL     1     -36.163  12.791  48.042  1.00  0.00     0.014 A 
HETATM   23  C13 UNL     1     -35.490  11.454  48.894  1.00  0.00     0.041 A 
HETATM   24  C14 UNL     1     -36.528  11.420  49.733  1.00  0.00     0.041 A 
HETATM   25  C15 UNL     1     -35.364  10.839  49.429  1.00  0.00     0.047 A 
ENDROOT
TORSDOF 28
ENDMDL
