MODEL 1
REMARK VINA RESULT:     291.8      0.000      0.000
REMARK WARNING: 32 MAX_TORS EXCEEDED!!!
REMARK  39 active torsions:
REMARK  status: ('A' for Active; 'I' for Inactive)
REMARK    1  A    between atoms: S1_1  and  N1_3 
REMARK    2  A    between atoms: S1_1  and  C4_8 
REMARK    3  A    between atoms: N1_3  and  C6_10 
REMARK    4  A    between atoms: N1_3  and  C7_11 
REMARK    5  A    between atoms: C1_5  and  C4_8 
REMARK    6  A    between atoms: C1_5  and  C11_15 
REMARK    7  A    between atoms: C2_6  and  C5_9 
REMARK    8  A    between atoms: C2_6  and  C8_12 
REMARK    9  A    between atoms: C2_6  and  C10_14 
REMARK   10  A    between atoms: C2_6  and  C11_15 
REMARK   11  A    between atoms: C3_7  and  C4_8 
REMARK   12  A    between atoms: C3_7  and  C7_11 
REMARK   13  A    between atoms: C3_7  and  C13_17 
REMARK   14  A    between atoms: C3_7  and  C15_19 
REMARK   15  A    between atoms: C4_8  and  C7_11 
REMARK   16  A    between atoms: C4_8  and  C5_9 
REMARK   17  A    between atoms: C4_8  and  C6_10 
REMARK   18  A    between atoms: C4_8  and  C14_18 
REMARK   19  A    between atoms: C4_8  and  C17_21 
REMARK   20  A    between atoms: C5_9  and  C9_13 
REMARK   21  A    between atoms: C5_9  and  C11_15 
REMARK   22  A    between atoms: C5_9  and  C16_20 
REMARK   23  A    between atoms: C6_10  and  C8_12 
REMARK   24  A    between atoms: C6_10  and  C12_16 
REMARK   25  A    between atoms: C6_10  and  C15_19 
REMARK   26  A    between atoms: C7_11  and  C11_15 
REMARK   27  A    between atoms: C7_11  and  C16_20 
REMARK   28  A    between atoms: C8_12  and  C13_17 
REMARK   29  A    between atoms: C8_12  and  C18_22 
REMARK   30  A    between atoms: C9_13  and  C10_14 
REMARK   31  A    between atoms: C11_15  and  C14_18 
REMARK   32  A    between atoms: C11_15  and  C17_21 
REMARK   33  A    between atoms: C12_16  and  C13_17 
REMARK   34  A    between atoms: C12_16  and  C19_23 
REMARK   35  A    between atoms: C13_17  and  C15_19 
REMARK   36  A    between atoms: C14_18  and  C16_20 
REMARK   37  A    between atoms: C15_19  and  C18_22 
REMARK   38  A    between atoms: C15_19  and  C19_23 
REMARK   39  A    between atoms: C16_20  and  C17_21 
ROOT
HETATM    1  S1  UNL     1     -40.803  13.556  50.251  1.00  0.00    -0.237 SA
HETATM    2  O1  UNL     1     -37.960  11.232  50.029  1.00  0.00     0.000 OA
HETATM    3  N1  UNL     1     -39.243  13.827  50.302  1.00  0.00     0.000 N 
HETATM    4  N2  UNL     1     -37.413  14.838  50.439  1.00  0.00     0.000 N 
HETATM    5  C1  UNL     1     -38.193  14.702  50.413  1.00  0.00     0.007 A 
HETATM    6  C2  UNL     1     -38.464  13.963  50.327  1.00  0.00     0.012 A 
HETATM    7  C3  UNL     1     -39.514  13.088  50.215  1.00  0.00     0.015 A 
HETATM    8  C4  UNL     1     -39.752  14.431  50.362  1.00  0.00     0.012 A 
HETATM    9  C5  UNL     1     -38.702  15.306  50.474  1.00  0.00     0.009 A 
HETATM   10  C6  UNL     1     -40.294  12.953  50.190  1.00  0.00     0.017 A 
HETATM   11  C7  UNL     1     -40.532  14.296  50.337  1.00  0.00     0.017 A 
HETATM   12  C8  UNL     1     -38.975  12.467  50.153  1.00  0.00     0.017 A 
HETATM   13  C9  UNL     1     -37.142  15.577  50.525  1.00  0.00     0.002 A 
HETATM   14  C10 UNL     1     -36.904  14.234  50.378  1.00  0.00     0.002 A 
HETATM   15  C11 UNL     1     -39.459  15.197  50.452  1.00  0.00     0.016 A 
HETATM   16  C12 UNL     1     -39.251  11.695  50.063  1.00  0.00     0.016 A 
HETATM   17  C13 UNL     1     -40.589  12.187  50.101  1.00  0.00     0.018 A 
HETATM   18  C14 UNL     1     -41.073  14.916  50.399  1.00  0.00     0.017 A 
HETATM   19  C15 UNL     1     -40.063  11.554  50.037  1.00  0.00     0.016 A 
HETATM   20  C16 UNL     1     -39.984  15.830  50.515  1.00  0.00     0.018 A 
HETATM   21  C17 UNL     1     -40.797  15.689  50.489  1.00  0.00     0.019 A 
HETATM   22  C18 UNL     1     -38.739  11.093  50.003  1.00  0.00     0.005 A 
HETATM   23  C19 UNL     1     -39.007  10.354  49.917  1.00  0.00     0.004 A 
ENDROOT
TORSDOF 39
ENDMDL
