MODEL 1
REMARK VINA RESULT:     401.0      0.000      0.000
REMARK  27 active torsions:
REMARK  status: ('A' for Active; 'I' for Inactive)
REMARK    1  A    between atoms: O1_1  and  C10_14 
REMARK    2  A    between atoms: O2_2  and  C5_9 
REMARK    3  A    between atoms: N1_3  and  C12_16 
REMARK    4  A    between atoms: N1_3  and  C13_17 
REMARK    5  A    between atoms: N2_4  and  C8_12 
REMARK    6  A    between atoms: C1_5  and  C5_9 
REMARK    7  A    between atoms: C1_5  and  C6_10 
REMARK    8  A    between atoms: C1_5  and  C10_14 
REMARK    9  A    between atoms: C2_6  and  C5_9 
REMARK   10  A    between atoms: C2_6  and  C6_10 
REMARK   11  A    between atoms: C2_6  and  C7_11 
REMARK   12  A    between atoms: C2_6  and  C10_14 
REMARK   13  A    between atoms: C3_7  and  C7_11 
REMARK   14  A    between atoms: C4_8  and  C5_9 
REMARK   15  A    between atoms: C4_8  and  C7_11 
REMARK   16  A    between atoms: C5_9  and  C7_11 
REMARK   17  A    between atoms: C5_9  and  C11_15 
REMARK   18  A    between atoms: C6_10  and  C7_11 
REMARK   19  A    between atoms: C7_11  and  C8_12 
REMARK   20  A    between atoms: C8_12  and  C11_15 
REMARK   21  A    between atoms: C8_12  and  C15_19 
REMARK   22  A    between atoms: C9_13  and  C10_14 
REMARK   23  A    between atoms: C9_13  and  C13_17 
REMARK   24  A    between atoms: C10_14  and  C13_17 
REMARK   25  A    between atoms: C10_14  and  C12_16 
REMARK   26  A    between atoms: C11_15  and  C14_18 
REMARK   27  A    between atoms: C15_19  and  C16_20 
ROOT
HETATM    1  O1  UNL     1     -41.267  12.484  47.567  1.00  0.00     0.000 OA
HETATM    2  O2  UNL     1     -37.450  12.489  49.131  1.00  0.00     0.000 OA
HETATM    3  N1  UNL     1     -39.740  12.486  48.193  1.00  0.00     0.000 N 
HETATM    4  N2  UNL     1     -37.160  15.207  48.782  1.00  0.00     0.000 N 
HETATM    5  C1  UNL     1     -38.553  13.193  48.558  1.00  0.00     0.000 A 
HETATM    6  C2  UNL     1     -38.892  13.898  48.297  1.00  0.00     0.000 A 
HETATM    7  C3  UNL     1     -38.977  12.487  48.505  1.00  0.00     0.000 A 
HETATM    8  C4  UNL     1     -38.469  14.604  48.349  1.00  0.00     0.000 A 
HETATM    9  C5  UNL     1     -37.366  13.900  48.923  1.00  0.00     0.000 A 
HETATM   10  C6  UNL     1     -37.705  14.605  48.662  1.00  0.00     0.000 A 
HETATM   11  C7  UNL     1     -37.790  13.194  48.870  1.00  0.00     0.000 A 
HETATM   12  C8  UNL     1     -36.613  14.072  49.201  1.00  0.00     0.000 A 
HETATM   13  C9  UNL     1     -40.163  11.781  48.140  1.00  0.00     0.000 A 
HETATM   14  C10 UNL     1     -40.079  13.191  47.932  1.00  0.00     0.000 A 
HETATM   15  C11 UNL     1     -36.487  14.877  49.115  1.00  0.00     0.000 A 
HETATM   16  C12 UNL     1     -40.927  11.779  47.827  1.00  0.00     0.000 A 
HETATM   17  C13 UNL     1     -40.843  13.191  47.619  1.00  0.00     0.000 A 
HETATM   18  C14 UNL     1     -36.078  13.528  49.515  1.00  0.00     0.000 A 
HETATM   19  C15 UNL     1     -35.802  15.285  49.325  1.00  0.00     0.000 A 
HETATM   20  C16 UNL     1     -35.338  13.782  49.774  1.00  0.00     0.000 A 
ENDROOT
TORSDOF 27
ENDMDL
