MODEL 1
REMARK VINA RESULT:     243.1      0.000      0.000
REMARK  23 active torsions:
REMARK  status: ('A' for Active; 'I' for Inactive)
REMARK    1  A    between atoms: N1_1  and  C6_7 
REMARK    2  A    between atoms: C1_2  and  C4_5 
REMARK    3  A    between atoms: C1_2  and  C7_8 
REMARK    4  A    between atoms: C3_4  and  C4_5 
REMARK    5  A    between atoms: C3_4  and  C5_6 
REMARK    6  A    between atoms: C3_4  and  C8_9 
REMARK    7  A    between atoms: C5_6  and  C7_8 
REMARK    8  A    between atoms: C5_6  and  C9_10 
REMARK    9  A    between atoms: C5_6  and  C11_12 
REMARK   10  A    between atoms: C6_7  and  C8_9 
REMARK   11  A    between atoms: C6_7  and  C7_8 
REMARK   12  A    between atoms: C7_8  and  C10_11 
REMARK   13  A    between atoms: C8_9  and  C12_13 
REMARK   14  A    between atoms: C9_10  and  C19_20 
REMARK   15  A    between atoms: C10_11  and  C16_17 
REMARK   16  A    between atoms: C11_12  and  C15_16 
REMARK   17  A    between atoms: C13_14  and  C14_15 
REMARK   18  A    between atoms: C13_14  and  C18_19 
REMARK   19  A    between atoms: C14_15  and  C17_18 
REMARK   20  A    between atoms: C14_15  and  C19_20 
REMARK   21  A    between atoms: C15_16  and  C16_17 
REMARK   22  A    between atoms: C17_18  and  C18_19 
REMARK   23  A    between atoms: C18_19  and  C19_20 
ROOT
HETATM    1  N1  UNL     1     -40.480  14.876  50.156  1.00  0.00     0.000 N 
HETATM    2  C1  UNL     1     -38.436  13.873  50.299  1.00  0.00     0.000 A 
HETATM    3  C2  UNL     1     -39.082  14.382  50.241  1.00  0.00     0.000 A 
HETATM    4  C3  UNL     1     -38.796  15.154  50.202  1.00  0.00     0.000 A 
HETATM    5  C4  UNL     1     -39.926  14.222  50.220  1.00  0.00     0.000 A 
HETATM    6  C5  UNL     1     -37.749  14.331  50.295  1.00  0.00     0.000 A 
HETATM    7  C6  UNL     1     -39.335  15.822  50.138  1.00  0.00     0.000 A 
HETATM    8  C7  UNL     1     -37.972  15.123  50.235  1.00  0.00     0.000 A 
HETATM    9  C8  UNL     1     -40.181  15.682  50.115  1.00  0.00     0.000 A 
HETATM   10  C9  UNL     1     -38.469  13.050  50.351  1.00  0.00     0.000 A 
HETATM   11  C10 UNL     1     -36.921  14.108  50.341  1.00  0.00     0.000 A 
HETATM   12  C11 UNL     1     -37.382  15.747  50.217  1.00  0.00     0.000 A 
HETATM   13  C12 UNL     1     -41.292  14.733  50.135  1.00  0.00     0.000 A 
HETATM   14  C13 UNL     1     -37.773  12.612  50.405  1.00  0.00     0.000 A 
HETATM   15  C14 UNL     1     -39.198  12.666  50.348  1.00  0.00     0.000 A 
HETATM   16  C15 UNL     1     -36.316  14.718  50.324  1.00  0.00     0.000 A 
HETATM   17  C16 UNL     1     -36.548  15.544  50.261  1.00  0.00     0.000 A 
HETATM   18  C17 UNL     1     -37.806  11.790  50.458  1.00  0.00     0.000 A 
HETATM   19  C18 UNL     1     -39.232  11.844  50.400  1.00  0.00     0.000 A 
HETATM   20  C19 UNL     1     -38.536  11.405  50.455  1.00  0.00     0.000 A 
ENDROOT
TORSDOF 23
ENDMDL
