MODEL 1
REMARK VINA RESULT:     215.8      0.000      0.000
REMARK  23 active torsions:
REMARK  status: ('A' for Active; 'I' for Inactive)
REMARK    1  A    between atoms: N2_2  and  C6_8 
REMARK    2  A    between atoms: N2_2  and  C16_18 
REMARK    3  A    between atoms: C1_3  and  C8_10 
REMARK    4  A    between atoms: C2_4  and  C5_7 
REMARK    5  A    between atoms: C2_4  and  C7_9 
REMARK    6  A    between atoms: C2_4  and  C8_10 
REMARK    7  A    between atoms: C2_4  and  C10_12 
REMARK    8  A    between atoms: C3_5  and  C5_7 
REMARK    9  A    between atoms: C3_5  and  C8_10 
REMARK   10  A    between atoms: C4_6  and  C5_7 
REMARK   11  A    between atoms: C4_6  and  C14_16 
REMARK   12  A    between atoms: C5_7  and  C6_8 
REMARK   13  A    between atoms: C5_7  and  C16_18 
REMARK   14  A    between atoms: C6_8  and  C7_9 
REMARK   15  A    between atoms: C6_8  and  C12_14 
REMARK   16  A    between atoms: C7_9  and  C11_13 
REMARK   17  A    between atoms: C7_9  and  C14_16 
REMARK   18  A    between atoms: C8_10  and  C15_17 
REMARK   19  A    between atoms: C9_11  and  C10_12 
REMARK   20  A    between atoms: C11_13  and  C12_14 
REMARK   21  A    between atoms: C12_14  and  C14_16 
REMARK   22  A    between atoms: C13_15  and  C15_17 
REMARK   23  A    between atoms: C15_17  and  C16_18 
ROOT
HETATM    1  N1  UNL     1     -39.961  12.195  47.919  1.00  0.00    -0.013 N 
HETATM    2  N2  UNL     1     -38.652  14.196  50.192  1.00  0.00     0.000 N 
HETATM    3  C1  UNL     1     -39.728  13.856  49.315  1.00  0.00     0.048 A 
HETATM    4  C2  UNL     1     -40.055  13.356  48.747  1.00  0.00     0.137 A 
HETATM    5  C3  UNL     1     -39.634  12.695  48.487  1.00  0.00     0.174 A 
HETATM    6  C4  UNL     1     -40.149  14.516  49.574  1.00  0.00     0.025 A 
HETATM    7  C5  UNL     1     -38.980  13.696  49.624  1.00  0.00     0.042 A 
HETATM    8  C6  UNL     1     -39.821  15.017  50.143  1.00  0.00     0.009 A 
HETATM    9  C7  UNL     1     -40.897  14.677  49.266  1.00  0.00     0.023 A 
HETATM   10  C8  UNL     1     -38.559  13.035  49.364  1.00  0.00     0.046 A 
HETATM   11  C9  UNL     1     -39.541  11.535  47.659  1.00  0.00     0.243 A 
HETATM   12  C10 UNL     1     -40.709  12.355  47.609  1.00  0.00     0.235 A 
HETATM   13  C11 UNL     1     -40.241  15.677  50.403  1.00  0.00     0.004 A 
HETATM   14  C12 UNL     1     -41.317  15.337  49.525  1.00  0.00     0.004 A 
HETATM   15  C13 UNL     1     -37.811  12.875  49.673  1.00  0.00     0.007 A 
HETATM   16  C14 UNL     1     -40.990  15.837  50.094  1.00  0.00     0.004 A 
HETATM   17  C15 UNL     1     -37.904  14.036  50.501  1.00  0.00     0.007 A 
HETATM   18  C16 UNL     1     -37.483  13.375  50.241  1.00  0.00     0.007 A 
ENDROOT
TORSDOF 23
ENDMDL
