MODEL 1
REMARK VINA RESULT:     384.1      0.000      0.000
REMARK WARNING: 32 MAX_TORS EXCEEDED!!!
REMARK  48 active torsions:
REMARK  status: ('A' for Active; 'I' for Inactive)
REMARK    1  A    between atoms: O1_1  and  C6_9 
REMARK    2  A    between atoms: O1_1  and  C11_14 
REMARK    3  A    between atoms: O1_1  and  C16_19 
REMARK    4  A    between atoms: O1_1  and  C20_23 
REMARK    5  A    between atoms: N1_2  and  C14_17 
REMARK    6  A    between atoms: N2_3  and  C15_18 
REMARK    7  A    between atoms: C1_4  and  C8_11 
REMARK    8  A    between atoms: C1_4  and  C11_14 
REMARK    9  A    between atoms: C1_4  and  C14_17 
REMARK   10  A    between atoms: C1_4  and  C18_21 
REMARK   11  A    between atoms: C2_5  and  C3_6 
REMARK   12  A    between atoms: C2_5  and  C5_8 
REMARK   13  A    between atoms: C2_5  and  C9_12 
REMARK   14  A    between atoms: C2_5  and  C14_17 
REMARK   15  A    between atoms: C2_5  and  C18_21 
REMARK   16  A    between atoms: C3_6  and  C5_8 
REMARK   17  A    between atoms: C3_6  and  C7_10 
REMARK   18  A    between atoms: C4_7  and  C5_8 
REMARK   19  A    between atoms: C4_7  and  C13_16 
REMARK   20  A    between atoms: C4_7  and  C14_17 
REMARK   21  A    between atoms: C4_7  and  C17_20 
REMARK   22  A    between atoms: C5_8  and  C10_13 
REMARK   23  A    between atoms: C6_9  and  C13_16 
REMARK   24  A    between atoms: C7_10  and  C8_11 
REMARK   25  A    between atoms: C7_10  and  C9_12 
REMARK   26  A    between atoms: C8_11  and  C14_17 
REMARK   27  A    between atoms: C8_11  and  C18_21 
REMARK   28  A    between atoms: C8_11  and  C22_25 
REMARK   29  A    between atoms: C9_12  and  C10_13 
REMARK   30  A    between atoms: C11_14  and  C12_15 
REMARK   31  A    between atoms: C11_14  and  C13_16 
REMARK   32  A    between atoms: C11_14  and  C22_25 
REMARK   33  A    between atoms: C12_15  and  C13_16 
REMARK   34  A    between atoms: C12_15  and  C23_26 
REMARK   35  A    between atoms: C13_16  and  C15_18 
REMARK   36  A    between atoms: C13_16  and  C16_19 
REMARK   37  A    between atoms: C14_17  and  C16_19 
REMARK   38  A    between atoms: C14_17  and  C20_23 
REMARK   39  A    between atoms: C15_18  and  C17_20 
REMARK   40  A    between atoms: C15_18  and  C21_24 
REMARK   41  A    between atoms: C16_19  and  C18_21 
REMARK   42  A    between atoms: C16_19  and  C22_25 
REMARK   43  A    between atoms: C17_20  and  C19_22 
REMARK   44  A    between atoms: C17_20  and  C23_26 
REMARK   45  A    between atoms: C18_21  and  C20_23 
REMARK   46  A    between atoms: C19_22  and  C21_24 
REMARK   47  A    between atoms: C20_23  and  C22_25 
REMARK   48  A    between atoms: C21_24  and  C23_26 
ROOT
HETATM    1  O1  UNL     1     -37.298  12.210  50.074  1.00  0.00     0.000 OA
HETATM    2  N2  UNL     1     -36.310  12.829  50.089  1.00  0.00    -0.229 NA
HETATM    3  C13 UNL     1     -37.113  13.012  50.133  1.00  0.00     0.040 A 
ENDROOT
BRANCH   1   4
HETATM    4  C6  UNL     1     -37.716  13.571  50.200  1.00  0.00     0.018 A 
HETATM    5  C4  UNL     1     -38.318  14.135  50.222  1.00  0.00     0.013 A 
HETATM    6  C1  UNL     1     -39.105  13.900  50.139  1.00  0.00     0.004 A 
HETATM    7  N1  UNL     1     -39.707  14.464  50.160  1.00  0.00     0.000 N 
HETATM    8  C11 UNL     1     -38.277  12.976  50.092  1.00  0.00     0.012 A 
HETATM    9  C12 UNL     1     -37.155  14.166  50.309  1.00  0.00     0.020 A 
HETATM   10  C2  UNL     1     -40.268  13.868  50.052  1.00  0.00     0.001 A 
HETATM   11  C3  UNL     1     -40.310  15.028  50.182  1.00  0.00     0.000 A 
HETATM   12  C5  UNL     1     -39.146  15.059  50.269  1.00  0.00     0.001 A 
HETATM   13  C7  UNL     1     -41.070  14.059  50.016  1.00  0.00     0.000 A 
HETATM   14  C8  UNL     1     -40.027  13.083  49.979  1.00  0.00     0.001 A 
HETATM   15  C9  UNL     1     -41.096  14.794  50.099  1.00  0.00     0.000 A 
HETATM   16  C10 UNL     1     -40.125  15.825  50.287  1.00  0.00     0.000 A 
HETATM   17  C14 UNL     1     -39.079  13.166  50.056  1.00  0.00     0.005 A 
HETATM   18  C16 UNL     1     -38.036  12.190  50.019  1.00  0.00     0.011 A 
HETATM   19  C18 UNL     1     -39.639  12.571  49.947  1.00  0.00     0.003 A 
HETATM   20  C20 UNL     1     -38.596  11.595  49.910  1.00  0.00     0.003 A 
HETATM   21  C22 UNL     1     -39.399  11.785  49.874  1.00  0.00     0.003 A 
HETATM   22  C15 UNL     1     -36.353  13.976  50.345  1.00  0.00     0.035 A 
HETATM   23  C17 UNL     1     -37.396  14.952  50.382  1.00  0.00     0.016 A 
HETATM   24  C19 UNL     1     -35.792  14.570  50.453  1.00  0.00     0.015 A 
HETATM   25  C21 UNL     1     -36.835  15.546  50.491  1.00  0.00     0.015 A 
HETATM   26  C23 UNL     1     -36.034  15.357  50.526  1.00  0.00     0.015 A 
ENDBRANCH   1   4
TORSDOF 48
ENDMDL
