MODEL 1
REMARK VINA RESULT:     427.9      0.000      0.000
REMARK  20 active torsions:
REMARK  status: ('A' for Active; 'I' for Inactive)
REMARK    1  A    between atoms: F1_1  and  C9_16 
REMARK    2  A    between atoms: F1_1  and  C10_17 
REMARK    3  A    between atoms: F2_2  and  C9_16 
REMARK    4  A    between atoms: F2_2  and  C11_18 
REMARK    5  A    between atoms: O2_5  and  C1_8 
REMARK    6  A    between atoms: O2_5  and  C15_22 
REMARK    7  A    between atoms: N1_6  and  C2_9 
REMARK    8  A    between atoms: C1_8  and  C6_13 
REMARK    9  A    between atoms: C2_9  and  C5_12 
REMARK   10  A    between atoms: C2_9  and  C8_15 
REMARK   11  A    between atoms: C5_12  and  C9_16 
REMARK   12  A    between atoms: C7_14  and  C8_15 
REMARK   13  A    between atoms: C7_14  and  C11_18 
REMARK   14  A    between atoms: C8_15  and  C9_16 
REMARK   15  A    between atoms: C8_15  and  C10_17 
REMARK   16  A    between atoms: C9_16  and  C11_18 
REMARK   17  A    between atoms: C9_16  and  C12_19 
REMARK   18  A    between atoms: C10_17  and  C11_18 
REMARK   19  A    between atoms: C10_17  and  C12_19 
REMARK   20  A    between atoms: C11_18  and  C12_19 
ROOT
HETATM    1  F1  UNL     1     -35.406  10.971  47.840  1.00  0.00    -0.386 F 
HETATM    2  F2  UNL     1     -37.008  11.360  47.859  1.00  0.00    -0.386 F 
HETATM    3  F3  UNL     1     -36.400  10.366  47.915  1.00  0.00    -0.272 F 
HETATM    4  C12 UNL     1     -36.207  11.166  47.850  1.00  0.00     0.249 A 
ENDROOT
BRANCH   1   5
HETATM    5  C9  UNL     1     -36.014  11.965  47.784  1.00  0.00     0.148 A 
HETATM    6  C10 UNL     1     -36.505  11.436  48.185  1.00  0.00     0.155 A 
HETATM    7  C7  UNL     1     -37.251  11.679  48.443  1.00  0.00     0.101 A 
HETATM    8  C5  UNL     1     -37.504  12.452  48.299  1.00  0.00     0.094 A 
HETATM    9  C4  UNL     1     -38.249  12.695  48.557  1.00  0.00     0.027 A 
HETATM   10  N1  UNL     1     -38.741  12.166  48.958  1.00  0.00     0.000 N 
HETATM   11  C2  UNL     1     -38.504  13.466  48.415  1.00  0.00     0.018 A 
HETATM   12  O2  UNL     1     -39.486  12.409  49.215  1.00  0.00     0.000 OA
HETATM   13  C1  UNL     1     -39.249  13.709  48.672  1.00  0.00     0.002 A 
HETATM   14  C8  UNL     1     -37.014  12.980  47.900  1.00  0.00     0.094 A 
HETATM   15  C13 UNL     1     -39.976  11.881  49.615  1.00  0.00     0.146 A 
HETATM   16  C15 UNL     1     -40.721  12.124  49.873  1.00  0.00     0.146 A 
HETATM   17  N2  UNL     1     -41.213  11.595  50.273  1.00  0.00    -0.291 NA
HETATM   18  C3  UNL     1     -39.503  14.481  48.529  1.00  0.00     0.001 A 
HETATM   19  C6  UNL     1     -40.248  14.724  48.787  1.00  0.00     0.000 A 
HETATM   20  O1  UNL     1     -40.503  15.496  48.644  1.00  0.00     0.000 OA
HETATM   21  C14 UNL     1     -41.248  15.739  48.902  1.00  0.00     0.000 A 
HETATM   22  C11 UNL     1     -36.269  12.737  47.642  1.00  0.00     0.155 A 
ENDBRANCH   1   5
TORSDOF 20
ENDMDL
