MODEL 1
REMARK VINA RESULT:     182.7      0.000      0.000
REMARK  30 active torsions:
REMARK  status: ('A' for Active; 'I' for Inactive)
REMARK    1  A    between atoms: O1_1  and  C3_7 
REMARK    2  A    between atoms: O1_1  and  C7_11 
REMARK    3  A    between atoms: O1_1  and  C10_14 
REMARK    4  A    between atoms: N1_3  and  N2_4 
REMARK    5  A    between atoms: N1_3  and  C4_8 
REMARK    6  A    between atoms: N1_3  and  C8_12 
REMARK    7  A    between atoms: N2_4  and  C5_9 
REMARK    8  A    between atoms: C2_6  and  C4_8 
REMARK    9  A    between atoms: C2_6  and  C9_13 
REMARK   10  A    between atoms: C2_6  and  C15_19 
REMARK   11  A    between atoms: C3_7  and  C4_8 
REMARK   12  A    between atoms: C3_7  and  C6_10 
REMARK   13  A    between atoms: C3_7  and  C14_18 
REMARK   14  A    between atoms: C4_8  and  C5_9 
REMARK   15  A    between atoms: C4_8  and  C7_11 
REMARK   16  A    between atoms: C6_10  and  C8_12 
REMARK   17  A    between atoms: C6_10  and  C9_13 
REMARK   18  A    between atoms: C6_10  and  C12_16 
REMARK   19  A    between atoms: C6_10  and  C13_17 
REMARK   20  A    between atoms: C7_11  and  C9_13 
REMARK   21  A    between atoms: C7_11  and  C13_17 
REMARK   22  A    between atoms: C8_12  and  C11_15 
REMARK   23  A    between atoms: C8_12  and  C15_19 
REMARK   24  A    between atoms: C9_13  and  C10_14 
REMARK   25  A    between atoms: C9_13  and  C11_15 
REMARK   26  A    between atoms: C9_13  and  C14_18 
REMARK   27  A    between atoms: C10_14  and  C13_17 
REMARK   28  A    between atoms: C11_15  and  C12_16 
REMARK   29  A    between atoms: C12_16  and  C15_19 
REMARK   30  A    between atoms: C13_17  and  C14_18 
ROOT
HETATM    1  O1  UNL     1     -38.964  15.520  48.849  1.00  0.00     0.000 OA
HETATM    2  O2  UNL     1     -37.472  13.405  47.532  1.00  0.00    -0.267 OA
HETATM    3  N1  UNL     1     -38.885  13.622  47.873  1.00  0.00     0.000 N 
HETATM    4  N2  UNL     1     -38.024  14.582  48.219  1.00  0.00     0.186 N 
HETATM    5  C1  UNL     1     -39.310  14.223  48.248  1.00  0.00     0.181 A 
HETATM    6  C2  UNL     1     -40.007  13.795  48.145  1.00  0.00     0.054 A 
HETATM    7  C3  UNL     1     -39.928  14.662  48.572  1.00  0.00     0.056 A 
HETATM    8  C4  UNL     1     -38.777  14.816  48.462  1.00  0.00     0.242 A 
HETATM    9  C5  UNL     1     -38.090  13.844  47.856  1.00  0.00     0.338 A 
HETATM   10  C6  UNL     1     -40.813  13.853  48.306  1.00  0.00     0.031 A 
HETATM   11  C7  UNL     1     -39.776  15.395  48.919  1.00  0.00     0.057 A 
HETATM   12  C8  UNL     1     -39.710  13.129  47.758  1.00  0.00     0.031 A 
HETATM   13  C9  UNL     1     -40.698  14.368  48.549  1.00  0.00     0.033 A 
HETATM   14  C10 UNL     1     -40.395  15.833  49.243  1.00  0.00     0.010 A 
HETATM   15  C11 UNL     1     -41.324  13.245  48.082  1.00  0.00     0.010 A 
HETATM   16  C12 UNL     1     -40.220  12.521  47.533  1.00  0.00     0.008 A 
HETATM   17  C13 UNL     1     -41.318  14.807  48.873  1.00  0.00     0.012 A 
HETATM   18  C14 UNL     1     -41.165  15.540  49.220  1.00  0.00     0.010 A 
HETATM   19  C15 UNL     1     -41.028  12.579  47.695  1.00  0.00     0.008 A 
ENDROOT
TORSDOF 30
ENDMDL
