MODEL 1
REMARK VINA RESULT:     389.2      0.000      0.000
REMARK  32 active torsions:
REMARK  status: ('A' for Active; 'I' for Inactive)
REMARK    1  A    between atoms: O1_1  and  C17_21 
REMARK    2  A    between atoms: O2_2  and  C18_22 
REMARK    3  A    between atoms: O3_3  and  C15_19 
REMARK    4  A    between atoms: O4_4  and  C16_20 
REMARK    5  A    between atoms: C1_5  and  C11_15 
REMARK    6  A    between atoms: C2_6  and  C12_16 
REMARK    7  A    between atoms: C3_7  and  C5_9 
REMARK    8  A    between atoms: C3_7  and  C6_10 
REMARK    9  A    between atoms: C4_8  and  C5_9 
REMARK   10  A    between atoms: C4_8  and  C6_10 
REMARK   11  A    between atoms: C5_9  and  C7_11 
REMARK   12  A    between atoms: C5_9  and  C11_15 
REMARK   13  A    between atoms: C6_10  and  C8_12 
REMARK   14  A    between atoms: C6_10  and  C12_16 
REMARK   15  A    between atoms: C7_11  and  C13_17 
REMARK   16  A    between atoms: C7_11  and  C17_21 
REMARK   17  A    between atoms: C8_12  and  C14_18 
REMARK   18  A    between atoms: C8_12  and  C18_22 
REMARK   19  A    between atoms: C9_13  and  C11_15 
REMARK   20  A    between atoms: C9_13  and  C15_19 
REMARK   21  A    between atoms: C9_13  and  C17_21 
REMARK   22  A    between atoms: C10_14  and  C12_16 
REMARK   23  A    between atoms: C10_14  and  C16_20 
REMARK   24  A    between atoms: C10_14  and  C18_22 
REMARK   25  A    between atoms: C11_15  and  C13_17 
REMARK   26  A    between atoms: C11_15  and  C17_21 
REMARK   27  A    between atoms: C12_16  and  C14_18 
REMARK   28  A    between atoms: C12_16  and  C18_22 
REMARK   29  A    between atoms: C13_17  and  C15_19 
REMARK   30  A    between atoms: C14_18  and  C16_20 
REMARK   31  A    between atoms: C15_19  and  C17_21 
REMARK   32  A    between atoms: C16_20  and  C18_22 
ROOT
HETATM    1  O1  UNL     1     -35.341  10.269  49.287  1.00  0.00     0.000 OA
HETATM    2  O2  UNL     1     -41.142  15.564  48.795  1.00  0.00     0.000 OA
HETATM    3  O3  UNL     1     -35.341  10.245  47.637  1.00  0.00     0.000 OA
HETATM    4  O4  UNL     1     -41.142  15.588  50.445  1.00  0.00     0.000 OA
HETATM    5  C1  UNL     1     -37.978  12.673  48.839  1.00  0.00     0.000 A 
HETATM    6  C2  UNL     1     -38.505  13.161  49.244  1.00  0.00     0.000 A 
HETATM    7  C3  UNL     1     -37.451  12.197  49.258  1.00  0.00     0.000 A 
HETATM    8  C4  UNL     1     -39.032  13.637  48.824  1.00  0.00     0.000 A 
HETATM    9  C5  UNL     1     -37.977  12.661  48.014  1.00  0.00     0.000 A 
HETATM   10  C6  UNL     1     -38.505  13.173  50.068  1.00  0.00     0.000 A 
HETATM   11  C7  UNL     1     -36.923  11.709  48.853  1.00  0.00     0.000 A 
HETATM   12  C8  UNL     1     -39.560  14.125  49.229  1.00  0.00     0.000 A 
HETATM   13  C9  UNL     1     -36.395  11.233  49.273  1.00  0.00     0.000 A 
HETATM   14  C10 UNL     1     -40.087  14.601  48.809  1.00  0.00     0.000 A 
HETATM   15  C11 UNL     1     -36.923  11.697  48.028  1.00  0.00     0.000 A 
HETATM   16  C12 UNL     1     -39.560  14.136  50.054  1.00  0.00     0.000 A 
HETATM   17  C13 UNL     1     -35.868  10.745  48.867  1.00  0.00     0.000 A 
HETATM   18  C14 UNL     1     -40.614  15.088  49.215  1.00  0.00     0.000 A 
HETATM   19  C15 UNL     1     -36.395  11.209  47.623  1.00  0.00     0.000 A 
HETATM   20  C16 UNL     1     -40.088  14.625  50.459  1.00  0.00     0.000 A 
HETATM   21  C17 UNL     1     -35.868  10.733  48.042  1.00  0.00     0.000 A 
HETATM   22  C18 UNL     1     -40.615  15.101  50.039  1.00  0.00     0.000 A 
ENDROOT
TORSDOF 32
ENDMDL
