MODEL 1
REMARK VINA RESULT:     119.1      0.000      0.000
REMARK  17 active torsions:
REMARK  status: ('A' for Active; 'I' for Inactive)
REMARK    1  A    between atoms: CL1_1  and  C9_13 
REMARK    2  A    between atoms: O2_3  and  C4_8 
REMARK    3  A    between atoms: N1_4  and  C6_10 
REMARK    4  A    between atoms: C1_5  and  C7_11 
REMARK    5  A    between atoms: C2_6  and  C4_8 
REMARK    6  A    between atoms: C2_6  and  C10_14 
REMARK    7  A    between atoms: C3_7  and  C4_8 
REMARK    8  A    between atoms: C3_7  and  C5_9 
REMARK    9  A    between atoms: C4_8  and  C6_10 
REMARK   10  A    between atoms: C4_8  and  C7_11 
REMARK   11  A    between atoms: C5_9  and  C6_10 
REMARK   12  A    between atoms: C5_9  and  C9_13 
REMARK   13  A    between atoms: C5_9  and  C10_14 
REMARK   14  A    between atoms: C6_10  and  C8_12 
REMARK   15  A    between atoms: C6_10  and  C10_14 
REMARK   16  A    between atoms: C8_12  and  C9_13 
REMARK   17  A    between atoms: C9_13  and  C10_14 
ROOT
HETATM    1 CL1  UNL     1     -41.307  15.776  50.169  1.00  0.00    -0.246 Cl
HETATM    2  O1  UNL     1     -37.582  12.217  50.190  1.00  0.00    -0.358 OA
HETATM    3  O2  UNL     1     -36.927  13.477  50.349  1.00  0.00     0.000 OA
HETATM    4  N1  UNL     1     -37.732  15.503  50.449  1.00  0.00    -0.271 NA
HETATM    5  C1  UNL     1     -38.387  14.243  50.289  1.00  0.00     0.091 A 
HETATM    6  C2  UNL     1     -39.117  14.626  50.259  1.00  0.00     0.081 A 
HETATM    7  C3  UNL     1     -38.349  13.421  50.224  1.00  0.00     0.114 A 
HETATM    8  C4  UNL     1     -37.694  14.681  50.384  1.00  0.00     0.097 A 
HETATM    9  C5  UNL     1     -39.809  14.187  50.164  1.00  0.00     0.076 A 
HETATM   10  C6  UNL     1     -39.154  15.447  50.324  1.00  0.00     0.072 A 
HETATM   11  C7  UNL     1     -37.619  13.038  50.254  1.00  0.00     0.141 A 
HETATM   12  C8  UNL     1     -40.539  14.570  50.134  1.00  0.00     0.068 A 
HETATM   13  C9  UNL     1     -39.884  15.830  50.294  1.00  0.00     0.068 A 
HETATM   14  C10 UNL     1     -40.577  15.393  50.199  1.00  0.00     0.068 A 
ENDROOT
TORSDOF 17
ENDMDL
