MODEL 1
REMARK VINA RESULT:     256.8      0.000      0.000
REMARK  28 active torsions:
REMARK  status: ('A' for Active; 'I' for Inactive)
REMARK    1  A    between atoms: CL1_1  and  C10_16 
REMARK    2  A    between atoms: CL2_2  and  C2_8 
REMARK    3  A    between atoms: CL2_2  and  C6_12 
REMARK    4  A    between atoms: CL2_2  and  C10_16 
REMARK    5  A    between atoms: O1_3  and  C7_13 
REMARK    6  A    between atoms: O2_4  and  C5_11 
REMARK    7  A    between atoms: N1_5  and  C5_11 
REMARK    8  A    between atoms: N2_6  and  C7_13 
REMARK    9  A    between atoms: C1_7  and  C4_10 
REMARK   10  A    between atoms: C1_7  and  C8_14 
REMARK   11  A    between atoms: C1_7  and  C9_15 
REMARK   12  A    between atoms: C2_8  and  C3_9 
REMARK   13  A    between atoms: C2_8  and  C11_17 
REMARK   14  A    between atoms: C3_9  and  C6_12 
REMARK   15  A    between atoms: C4_10  and  C6_12 
REMARK   16  A    between atoms: C4_10  and  C13_19 
REMARK   17  A    between atoms: C4_10  and  C15_21 
REMARK   18  A    between atoms: C5_11  and  C7_13 
REMARK   19  A    between atoms: C6_12  and  C10_16 
REMARK   20  A    between atoms: C6_12  and  C11_17 
REMARK   21  A    between atoms: C8_14  and  C9_15 
REMARK   22  A    between atoms: C9_15  and  C10_16 
REMARK   23  A    between atoms: C11_17  and  C12_18 
REMARK   24  A    between atoms: C11_17  and  C14_20 
REMARK   25  A    between atoms: C12_18  and  C13_19 
REMARK   26  A    between atoms: C12_18  and  C15_21 
REMARK   27  A    between atoms: C13_19  and  C14_20 
REMARK   28  A    between atoms: C14_20  and  C15_21 
ROOT
HETATM    1 CL1  UNL     1     -36.552  15.382  50.525  1.00  0.00    -0.258 Cl
HETATM    2 CL2  UNL     1     -37.849  14.889  50.515  1.00  0.00    -0.279 Cl
HETATM    3  O1  UNL     1     -39.371  11.371  50.478  1.00  0.00     0.000 OA
HETATM    4  O2  UNL     1     -37.917  10.861  50.480  1.00  0.00     0.000 OA
HETATM    5  N1  UNL     1     -37.310  12.119  50.494  1.00  0.00     0.000 N 
HETATM    6  N2  UNL     1     -39.059  12.732  50.491  1.00  0.00     0.000 N 
HETATM    7  C1  UNL     1     -37.801  13.523  50.503  1.00  0.00     0.043 A 
HETATM    8  C2  UNL     1     -38.620  13.431  50.499  1.00  0.00     0.032 A 
HETATM    9  C3  UNL     1     -37.217  12.940  50.501  1.00  0.00     0.048 A 
HETATM   10  C4  UNL     1     -39.059  14.130  50.503  1.00  0.00     0.031 A 
HETATM   11  C5  UNL     1     -38.787  11.954  50.486  1.00  0.00     0.011 A 
HETATM   12  C6  UNL     1     -37.591  14.356  50.511  1.00  0.00     0.047 A 
HETATM   13  C7  UNL     1     -38.009  11.681  50.487  1.00  0.00     0.007 A 
HETATM   14  C8  UNL     1     -36.384  13.149  50.506  1.00  0.00     0.053 A 
HETATM   15  C9  UNL     1     -36.762  14.585  50.517  1.00  0.00     0.063 A 
HETATM   16  C10 UNL     1     -36.155  13.977  50.514  1.00  0.00     0.061 A 
HETATM   17  C11 UNL     1     -38.673  14.859  50.511  1.00  0.00     0.031 A 
HETATM   18  C12 UNL     1     -39.883  14.100  50.500  1.00  0.00     0.032 A 
HETATM   19  C13 UNL     1     -39.112  15.558  50.515  1.00  0.00     0.024 A 
HETATM   20  C14 UNL     1     -40.322  14.798  50.504  1.00  0.00     0.028 A 
HETATM   21  C15 UNL     1     -39.936  15.527  50.512  1.00  0.00     0.028 A 
ENDROOT
TORSDOF 28
ENDMDL
