MODEL 1
REMARK VINA RESULT:      39.2      0.000      0.000
REMARK  12 active torsions:
REMARK  status: ('A' for Active; 'I' for Inactive)
REMARK    1  A    between atoms: C1_2  and  C6_7 
REMARK    2  A    between atoms: C2_3  and  C4_5 
REMARK    3  A    between atoms: C3_4  and  C4_5 
REMARK    4  A    between atoms: C4_5  and  C5_6 
REMARK    5  A    between atoms: C4_5  and  C6_7 
REMARK    6  A    between atoms: C5_6  and  C10_11 
REMARK    7  A    between atoms: C6_7  and  C7_8 
REMARK    8  A    between atoms: C6_7  and  C9_10 
REMARK    9  A    between atoms: C7_8  and  C8_9 
REMARK   10  A    between atoms: C7_8  and  C10_11 
REMARK   11  A    between atoms: C8_9  and  C9_10 
REMARK   12  A    between atoms: C9_10  and  C10_11 
ROOT
HETATM    1  N1  UNL     1     -41.322  15.370  49.338  1.00  0.00    -0.278 NA
HETATM    2  C1  UNL     1     -40.676  15.531  49.824  1.00  0.00     0.052 A 
HETATM    3  C2  UNL     1     -40.029  15.692  50.309  1.00  0.00     0.037 A 
HETATM    4  C3  UNL     1     -41.184  15.642  50.463  1.00  0.00     0.070 A 
HETATM    5  C4  UNL     1     -40.167  15.421  49.183  1.00  0.00     0.052 A 
HETATM    6  C5  UNL     1     -39.265  15.677  49.998  1.00  0.00     0.022 A 
HETATM    7  C6  UNL     1     -39.148  15.501  49.201  1.00  0.00     0.022 A 
HETATM    8  C7  UNL     1     -38.619  15.838  50.485  1.00  0.00     0.008 A 
HETATM    9  C8  UNL     1     -38.384  15.486  48.890  1.00  0.00     0.005 A 
HETATM   10  C9  UNL     1     -37.855  15.823  50.174  1.00  0.00     0.005 A 
HETATM   11  C10 UNL     1     -37.737  15.646  49.375  1.00  0.00     0.005 A 
ENDROOT
TORSDOF 12
ENDMDL
MODEL 2
REMARK VINA RESULT:      40.4      1.148      2.448
REMARK  12 active torsions:
REMARK  status: ('A' for Active; 'I' for Inactive)
REMARK    1  A    between atoms: C1_2  and  C6_7 
REMARK    2  A    between atoms: C2_3  and  C4_5 
REMARK    3  A    between atoms: C3_4  and  C4_5 
REMARK    4  A    between atoms: C4_5  and  C5_6 
REMARK    5  A    between atoms: C4_5  and  C6_7 
REMARK    6  A    between atoms: C5_6  and  C10_11 
REMARK    7  A    between atoms: C6_7  and  C7_8 
REMARK    8  A    between atoms: C6_7  and  C9_10 
REMARK    9  A    between atoms: C7_8  and  C8_9 
REMARK   10  A    between atoms: C7_8  and  C10_11 
REMARK   11  A    between atoms: C8_9  and  C9_10 
REMARK   12  A    between atoms: C9_10  and  C10_11 
ROOT
HETATM    1  N1  UNL     1     -37.999  15.730  48.403  1.00  0.00    -0.278 NA
HETATM    2  C1  UNL     1     -38.418  15.760  49.113  1.00  0.00     0.052 A 
HETATM    3  C2  UNL     1     -38.838  15.789  49.822  1.00  0.00     0.037 A 
HETATM    4  C3  UNL     1     -37.709  15.766  49.532  1.00  0.00     0.070 A 
HETATM    5  C4  UNL     1     -39.129  15.753  48.692  1.00  0.00     0.052 A 
HETATM    6  C5  UNL     1     -39.663  15.798  49.813  1.00  0.00     0.022 A 
HETATM    7  C6  UNL     1     -40.068  15.778  49.095  1.00  0.00     0.022 A 
HETATM    8  C7  UNL     1     -40.083  15.827  50.523  1.00  0.00     0.008 A 
HETATM    9  C8  UNL     1     -40.893  15.787  49.086  1.00  0.00     0.005 A 
HETATM   10  C9  UNL     1     -40.908  15.836  50.514  1.00  0.00     0.005 A 
HETATM   11  C10 UNL     1     -41.313  15.816  49.796  1.00  0.00     0.005 A 
ENDROOT
TORSDOF 12
ENDMDL
