MODEL 1
REMARK VINA RESULT:     253.3      0.000      0.000
REMARK  26 active torsions:
REMARK  status: ('A' for Active; 'I' for Inactive)
REMARK    1  A    between atoms: O1_1  and  C7_10 
REMARK    2  A    between atoms: O1_1  and  C10_13 
REMARK    3  A    between atoms: C1_4  and  C6_9 
REMARK    4  A    between atoms: C1_4  and  C8_11 
REMARK    5  A    between atoms: C1_4  and  C12_15 
REMARK    6  A    between atoms: C2_5  and  C5_8 
REMARK    7  A    between atoms: C2_5  and  C7_10 
REMARK    8  A    between atoms: C3_6  and  C4_7 
REMARK    9  A    between atoms: C3_6  and  C6_9 
REMARK   10  A    between atoms: C3_6  and  C7_10 
REMARK   11  A    between atoms: C3_6  and  C12_15 
REMARK   12  A    between atoms: C4_7  and  C5_8 
REMARK   13  A    between atoms: C4_7  and  C8_11 
REMARK   14  A    between atoms: C4_7  and  C9_12 
REMARK   15  A    between atoms: C5_8  and  C6_9 
REMARK   16  A    between atoms: C8_11  and  C13_16 
REMARK   17  A    between atoms: C8_11  and  C15_18 
REMARK   18  A    between atoms: C9_12  and  C10_13 
REMARK   19  A    between atoms: C9_12  and  C14_17 
REMARK   20  A    between atoms: C9_12  and  C15_18 
REMARK   21  A    between atoms: C10_13  and  C13_16 
REMARK   22  A    between atoms: C10_13  and  C15_18 
REMARK   23  A    between atoms: C11_14  and  C12_15 
REMARK   24  A    between atoms: C13_16  and  C14_17 
REMARK   25  A    between atoms: C14_17  and  C15_18 
REMARK   26  A    between atoms: C15_18  and  C16_19 
ROOT
HETATM    1  O1  UNL     1     -38.096  13.612  50.341  1.00  0.00     0.000 OA
HETATM    2  O2  UNL     1     -40.710  15.024  50.199  1.00  0.00     0.000 OA
HETATM    3  N1  UNL     1     -36.705  12.091  50.470  1.00  0.00    -0.015 N 
HETATM    4  C1  UNL     1     -38.087  12.448  50.421  1.00  0.00     0.123 A 
HETATM    5  C2  UNL     1     -38.675  13.025  50.371  1.00  0.00     0.045 A 
HETATM    6  C3  UNL     1     -38.295  11.651  50.472  1.00  0.00     0.071 A 
HETATM    7  C4  UNL     1     -39.470  12.806  50.372  1.00  0.00     0.029 A 
HETATM    8  C5  UNL     1     -39.091  11.431  50.473  1.00  0.00     0.031 A 
HETATM    9  C6  UNL     1     -39.677  12.009  50.423  1.00  0.00     0.031 A 
HETATM   10  C7  UNL     1     -37.292  12.667  50.420  1.00  0.00     0.192 A 
HETATM   11  C8  UNL     1     -38.893  13.819  50.313  1.00  0.00     0.021 A 
HETATM   12  C9  UNL     1     -39.692  14.025  50.285  1.00  0.00     0.006 A 
HETATM   13  C10 UNL     1     -38.315  14.405  50.283  1.00  0.00     0.005 A 
HETATM   14  C11 UNL     1     -35.910  12.310  50.469  1.00  0.00     0.243 A 
HETATM   15  C12 UNL     1     -36.913  11.294  50.521  1.00  0.00     0.212 A 
HETATM   16  C13 UNL     1     -39.911  14.818  50.227  1.00  0.00     0.002 A 
HETATM   17  C14 UNL     1     -38.533  15.199  50.225  1.00  0.00     0.002 A 
HETATM   18  C15 UNL     1     -39.332  15.405  50.197  1.00  0.00     0.002 A 
HETATM   19  C16 UNL     1     -40.929  15.818  50.140  1.00  0.00     0.000 A 
ENDROOT
TORSDOF 26
ENDMDL
