MODEL 1
REMARK VINA RESULT:     187.8      0.000      0.000
REMARK  32 active torsions:
REMARK  status: ('A' for Active; 'I' for Inactive)
REMARK    1  A    between atoms: F2_2  and  C8_17 
REMARK    2  A    between atoms: N1_4  and  C1_10 
REMARK    3  A    between atoms: N1_4  and  C3_12 
REMARK    4  A    between atoms: N2_5  and  N3_6 
REMARK    5  A    between atoms: N2_5  and  C6_15 
REMARK    6  A    between atoms: N3_6  and  N4_7 
REMARK    7  A    between atoms: N3_6  and  N5_8 
REMARK    8  A    between atoms: N3_6  and  C3_12 
REMARK    9  A    between atoms: N4_7  and  N6_9 
REMARK   10  A    between atoms: N5_8  and  C12_21 
REMARK   11  A    between atoms: N6_9  and  C13_22 
REMARK   12  A    between atoms: C1_10  and  C3_12 
REMARK   13  A    between atoms: C1_10  and  C5_14 
REMARK   14  A    between atoms: C2_11  and  C3_12 
REMARK   15  A    between atoms: C2_11  and  C4_13 
REMARK   16  A    between atoms: C2_11  and  C9_18 
REMARK   17  A    between atoms: C3_12  and  C4_13 
REMARK   18  A    between atoms: C3_12  and  C6_15 
REMARK   19  A    between atoms: C3_12  and  C10_19 
REMARK   20  A    between atoms: C4_13  and  C7_16 
REMARK   21  A    between atoms: C4_13  and  C11_20 
REMARK   22  A    between atoms: C5_14  and  C6_15 
REMARK   23  A    between atoms: C5_14  and  C8_17 
REMARK   24  A    between atoms: C5_14  and  C11_20 
REMARK   25  A    between atoms: C6_15  and  C7_16 
REMARK   26  A    between atoms: C6_15  and  C10_19 
REMARK   27  A    between atoms: C6_15  and  C11_20 
REMARK   28  A    between atoms: C7_16  and  C8_17 
REMARK   29  A    between atoms: C8_17  and  C11_20 
REMARK   30  A    between atoms: C8_17  and  C10_19 
REMARK   31  A    between atoms: C9_18  and  C12_21 
REMARK   32  A    between atoms: C10_19  and  C13_22 
ROOT
HETATM    1  F1  UNL     1     -37.393  15.838  48.108  1.00  0.00    -0.461 F 
HETATM    2  F2  UNL     1     -35.578  15.474  50.285  1.00  0.00    -0.456 F 
HETATM    3  O1  UNL     1     -38.378  15.803  48.381  1.00  0.00     0.000 OA
HETATM    4  N1  UNL     1     -40.078  15.660  49.377  1.00  0.00     0.000 N 
HETATM    5  N3  UNL     1     -40.028  15.530  50.191  1.00  0.00     0.000 N 
HETATM    6  N5  UNL     1     -41.320  15.594  49.861  1.00  0.00     0.341 N 
HETATM    7  C1  UNL     1     -38.668  15.684  49.145  1.00  0.00     0.069 A 
HETATM    8  C2  UNL     1     -39.440  15.736  48.859  1.00  0.00     0.068 A 
HETATM    9  C4  UNL     1     -37.895  15.632  49.430  1.00  0.00     0.106 A 
HETATM   10  C5  UNL     1     -37.258  15.708  48.911  1.00  0.00     0.129 A 
HETATM   11  C6  UNL     1     -37.760  15.502  50.233  1.00  0.00     0.136 A 
HETATM   12  C7  UNL     1     -36.486  15.656  49.196  1.00  0.00     0.138 A 
HETATM   13  C8  UNL     1     -36.988  15.450  50.518  1.00  0.00     0.151 A 
HETATM   14  C9  UNL     1     -40.876  15.699  49.174  1.00  0.00     0.295 A 
HETATM   15  C11 UNL     1     -36.351  15.527  50.000  1.00  0.00     0.145 A 
HETATM   16  C12 UNL     1     -40.796  15.489  50.490  1.00  0.00     0.326 A 
ENDROOT
BRANCH   9  17
HETATM   17  C3  UNL     1     -38.957  15.565  49.908  1.00  0.00     0.075 A 
HETATM   18  N2  UNL     1     -39.067  14.765  50.075  1.00  0.00     0.000 N 
HETATM   19  N4  UNL     1     -39.736  14.428  50.420  1.00  0.00     0.000 N 
HETATM   20  C10 UNL     1     -38.526  14.160  49.926  1.00  0.00     0.271 A 
HETATM   21  N6  UNL     1     -38.861  13.450  50.179  1.00  0.00     0.340 N 
HETATM   22  C13 UNL     1     -39.609  13.616  50.484  1.00  0.00     0.325 A 
ENDBRANCH   9  17
TORSDOF 32
ENDMDL
