MODEL 1
REMARK VINA RESULT:      75.9      0.000      0.000
REMARK  16 active torsions:
REMARK  status: ('A' for Active; 'I' for Inactive)
REMARK    1  A    between atoms: O1_1  and  C1_7 
REMARK    2  A    between atoms: O2_2  and  N3_5 
REMARK    3  A    between atoms: N1_3  and  N3_5 
REMARK    4  A    between atoms: N2_4  and  N4_6 
REMARK    5  A    between atoms: N2_4  and  C3_9 
REMARK    6  A    between atoms: N3_5  and  C4_10 
REMARK    7  A    between atoms: N3_5  and  C1_7 
REMARK    8  A    between atoms: N4_6  and  C5_11 
REMARK    9  A    between atoms: C1_7  and  C3_9 
REMARK   10  A    between atoms: C1_7  and  C4_10 
REMARK   11  A    between atoms: C2_8  and  C3_9 
REMARK   12  A    between atoms: C2_8  and  C5_11 
REMARK   13  A    between atoms: C3_9  and  C4_10 
REMARK   14  A    between atoms: C4_10  and  C6_12 
REMARK   15  A    between atoms: C4_10  and  C8_14 
REMARK   16  A    between atoms: C5_11  and  C7_13 
ROOT
HETATM    1  O1  UNL     1     -39.844  13.453  48.244  1.00  0.00     0.000 OA
HETATM    2  N3  UNL     1     -41.204  13.535  48.677  1.00  0.00     0.000 N 
HETATM    3  C3  UNL     1     -40.463  13.884  48.580  1.00  0.00     0.059 A 
HETATM    4  C8  UNL     1     -41.326  12.754  48.439  1.00  0.00     0.007 A 
ENDROOT
BRANCH   1   5
HETATM    5  C1  UNL     1     -40.341  14.664  48.818  1.00  0.00     0.201 A 
HETATM    6  N2  UNL     1     -40.982  14.834  48.334  1.00  0.00     0.000 N 
HETATM    7  C5  UNL     1     -41.328  15.527  48.603  1.00  0.00     0.245 A 
HETATM    8  C7  UNL     1     -41.235  14.384  47.690  1.00  0.00     0.067 A 
HETATM    9  C2  UNL     1     -40.291  15.257  49.388  1.00  0.00     0.199 A 
HETATM   10  N1  UNL     1     -39.694  15.234  49.957  1.00  0.00     0.000 N 
HETATM   11  N4  UNL     1     -40.901  15.789  49.253  1.00  0.00     0.130 N 
HETATM   12  C4  UNL     1     -39.147  14.617  49.954  1.00  0.00     0.058 A 
HETATM   13  C6  UNL     1     -39.644  15.827  50.528  1.00  0.00     0.035 A 
HETATM   14  O2  UNL     1     -38.549  14.593  50.523  1.00  0.00     0.000 OA
ENDBRANCH   1   5
TORSDOF 16
ENDMDL
MODEL 2
REMARK VINA RESULT:      78.5      1.428      1.753
REMARK  16 active torsions:
REMARK  status: ('A' for Active; 'I' for Inactive)
REMARK    1  A    between atoms: O1_1  and  C1_7 
REMARK    2  A    between atoms: O2_2  and  N3_5 
REMARK    3  A    between atoms: N1_3  and  N3_5 
REMARK    4  A    between atoms: N2_4  and  N4_6 
REMARK    5  A    between atoms: N2_4  and  C3_9 
REMARK    6  A    between atoms: N3_5  and  C4_10 
REMARK    7  A    between atoms: N3_5  and  C1_7 
REMARK    8  A    between atoms: N4_6  and  C5_11 
REMARK    9  A    between atoms: C1_7  and  C3_9 
REMARK   10  A    between atoms: C1_7  and  C4_10 
REMARK   11  A    between atoms: C2_8  and  C3_9 
REMARK   12  A    between atoms: C2_8  and  C5_11 
REMARK   13  A    between atoms: C3_9  and  C4_10 
REMARK   14  A    between atoms: C4_10  and  C6_12 
REMARK   15  A    between atoms: C4_10  and  C8_14 
REMARK   16  A    between atoms: C5_11  and  C7_13 
ROOT
HETATM    1  O1  UNL     1     -40.314  15.183  50.496  1.00  0.00     0.000 OA
HETATM    2  N3  UNL     1     -40.782  14.550  49.304  1.00  0.00     0.000 N 
HETATM    3  C3  UNL     1     -40.277  15.084  49.678  1.00  0.00     0.059 A 
HETATM    4  C8  UNL     1     -41.324  14.113  49.749  1.00  0.00     0.007 A 
ENDROOT
BRANCH   1   5
HETATM    5  C1  UNL     1     -39.736  15.520  49.233  1.00  0.00     0.201 A 
HETATM    6  N2  UNL     1     -40.398  15.576  48.751  1.00  0.00     0.000 N 
HETATM    7  C5  UNL     1     -40.146  15.769  47.994  1.00  0.00     0.245 A 
HETATM    8  C7  UNL     1     -41.180  15.457  48.985  1.00  0.00     0.067 A 
HETATM    9  C2  UNL     1     -39.073  15.680  48.772  1.00  0.00     0.199 A 
HETATM   10  N1  UNL     1     -38.321  15.665  49.111  1.00  0.00     0.000 N 
HETATM   11  N4  UNL     1     -39.328  15.834  48.007  1.00  0.00     0.130 N 
HETATM   12  C4  UNL     1     -38.234  15.489  49.912  1.00  0.00     0.058 A 
HETATM   13  C6  UNL     1     -37.656  15.825  48.649  1.00  0.00     0.035 A 
HETATM   14  O2  UNL     1     -37.482  15.473  50.252  1.00  0.00     0.000 OA
ENDBRANCH   1   5
TORSDOF 16
ENDMDL
