MODEL 1
REMARK VINA RESULT:     134.5      0.000      0.000
REMARK  22 active torsions:
REMARK  status: ('A' for Active; 'I' for Inactive)
REMARK    1  A    between atoms: S1_2  and  C4_7 
REMARK    2  A    between atoms: S1_2  and  C8_11 
REMARK    3  A    between atoms: C1_4  and  C4_7 
REMARK    4  A    between atoms: C1_4  and  C5_8 
REMARK    5  A    between atoms: C1_4  and  C7_10 
REMARK    6  A    between atoms: C1_4  and  C11_14 
REMARK    7  A    between atoms: C2_5  and  C3_6 
REMARK    8  A    between atoms: C2_5  and  C5_8 
REMARK    9  A    between atoms: C2_5  and  C6_9 
REMARK   10  A    between atoms: C3_6  and  C4_7 
REMARK   11  A    between atoms: C4_7  and  C5_8 
REMARK   12  A    between atoms: C4_7  and  C9_12 
REMARK   13  A    between atoms: C5_8  and  C8_11 
REMARK   14  A    between atoms: C7_10  and  C12_15 
REMARK   15  A    between atoms: C7_10  and  C14_17 
REMARK   16  A    between atoms: C8_11  and  C9_12 
REMARK   17  A    between atoms: C10_13  and  C11_14 
REMARK   18  A    between atoms: C10_13  and  C13_16 
REMARK   19  A    between atoms: C11_14  and  C12_15 
REMARK   20  A    between atoms: C11_14  and  C14_17 
REMARK   21  A    between atoms: C12_15  and  C13_16 
REMARK   22  A    between atoms: C13_16  and  C14_17 
ROOT
HETATM    1 CL1  UNL     1     -41.299  15.481  48.050  1.00  0.00    -0.287 Cl
HETATM    2  S1  UNL     1     -40.900  10.619  48.756  1.00  0.00    -0.222 SA
HETATM    3  N1  UNL     1     -41.082  13.055  48.488  1.00  0.00     0.000 N 
HETATM    4  C1  UNL     1     -40.912  12.787  49.250  1.00  0.00     0.037 A 
HETATM    5  C2  UNL     1     -41.180  12.515  47.874  1.00  0.00     0.037 A 
HETATM    6  C3  UNL     1     -40.839  11.979  49.397  1.00  0.00     0.032 A 
HETATM    7  C4  UNL     1     -41.108  11.706  48.019  1.00  0.00     0.034 A 
HETATM    8  C5  UNL     1     -40.937  11.438  48.781  1.00  0.00     0.034 A 
HETATM    9  C6  UNL     1     -41.154  13.864  48.343  1.00  0.00     0.040 A 
HETATM   10  C7  UNL     1     -41.056  14.405  48.958  1.00  0.00     0.036 A 
HETATM   11  C8  UNL     1     -41.174  11.050  47.531  1.00  0.00     0.036 A 
HETATM   12  C9  UNL     1     -41.045  10.380  47.985  1.00  0.00     0.040 A 
HETATM   13  C10 UNL     1     -41.128  15.213  48.812  1.00  0.00     0.039 A 
HETATM   14  C11 UNL     1     -40.886  14.137  49.719  1.00  0.00     0.038 A 
HETATM   15  C12 UNL     1     -41.030  15.754  49.427  1.00  0.00     0.039 A 
HETATM   16  C13 UNL     1     -40.788  14.677  50.335  1.00  0.00     0.033 A 
HETATM   17  C14 UNL     1     -40.860  15.486  50.188  1.00  0.00     0.033 A 
ENDROOT
TORSDOF 22
ENDMDL
