MODEL 1
REMARK VINA RESULT:     198.2      0.000      0.000
REMARK  18 active torsions:
REMARK  status: ('A' for Active; 'I' for Inactive)
REMARK    1  A    between atoms: O1_1  and  C3_9 
REMARK    2  A    between atoms: O4_4  and  C10_16 
REMARK    3  A    between atoms: N1_5  and  C10_16 
REMARK    4  A    between atoms: C1_7  and  C4_10 
REMARK    5  A    between atoms: C2_8  and  C3_9 
REMARK    6  A    between atoms: C2_8  and  C6_12 
REMARK    7  A    between atoms: C2_8  and  C7_13 
REMARK    8  A    between atoms: C2_8  and  C8_14 
REMARK    9  A    between atoms: C3_9  and  C5_11 
REMARK   10  A    between atoms: C4_10  and  C5_11 
REMARK   11  A    between atoms: C4_10  and  C6_12 
REMARK   12  A    between atoms: C4_10  and  C8_14 
REMARK   13  A    between atoms: C5_11  and  C7_13 
REMARK   14  A    between atoms: C5_11  and  C8_14 
REMARK   15  A    between atoms: C6_12  and  C7_13 
REMARK   16  A    between atoms: C7_13  and  C8_14 
REMARK   17  A    between atoms: C7_13  and  C11_17 
REMARK   18  A    between atoms: C8_14  and  C12_18 
ROOT
HETATM    1  O1  UNL     1     -37.547  15.706  50.238  1.00  0.00     0.000 OA
HETATM    2  O2  UNL     1     -36.196  15.254  50.343  1.00  0.00     0.000 OA
HETATM    3  O3  UNL     1     -37.249  12.129  50.458  1.00  0.00     0.000 OA
HETATM    4  O4  UNL     1     -40.233  14.430  50.151  1.00  0.00     0.000 OA
HETATM    5  N1  UNL     1     -39.162  15.376  50.161  1.00  0.00     0.000 N 
HETATM    6  N2  UNL     1     -41.321  15.663  50.016  1.00  0.00    -0.293 NA
HETATM    7  C1  UNL     1     -37.810  14.925  50.266  1.00  0.00     0.002 A 
HETATM    8  C2  UNL     1     -37.266  14.308  50.334  1.00  0.00     0.002 A 
HETATM    9  C3  UNL     1     -38.618  14.760  50.228  1.00  0.00     0.022 A 
HETATM   10  C4  UNL     1     -36.459  14.473  50.372  1.00  0.00     0.000 A 
HETATM   11  C5  UNL     1     -37.530  13.527  50.362  1.00  0.00     0.002 A 
HETATM   12  C6  UNL     1     -36.986  12.910  50.429  1.00  0.00     0.000 A 
HETATM   13  C7  UNL     1     -35.915  13.857  50.439  1.00  0.00     0.000 A 
HETATM   14  C8  UNL     1     -36.178  13.075  50.468  1.00  0.00     0.000 A 
HETATM   15  C9  UNL     1     -39.970  15.212  50.122  1.00  0.00     0.122 A 
HETATM   16  C10 UNL     1     -40.514  15.829  50.055  1.00  0.00     0.143 A 
HETATM   17  C11 UNL     1     -35.388  15.419  50.382  1.00  0.00     0.000 A 
HETATM   18  C12 UNL     1     -36.704  11.513  50.525  1.00  0.00     0.000 A 
ENDROOT
TORSDOF 18
ENDMDL
