MODEL 1
REMARK VINA RESULT:     279.6      0.000      0.000
REMARK WARNING: 32 MAX_TORS EXCEEDED!!!
REMARK  34 active torsions:
REMARK  status: ('A' for Active; 'I' for Inactive)
REMARK    1  A    between atoms: I1_1  and  N1_8 
REMARK    2  A    between atoms: I1_1  and  N2_9 
REMARK    3  A    between atoms: I1_1  and  C2_11 
REMARK    4  A    between atoms: I2_2  and  I3_3 
REMARK    5  A    between atoms: I2_2  and  O2_5 
REMARK    6  A    between atoms: I2_2  and  N2_9 
REMARK    7  A    between atoms: I2_2  and  C6_15 
REMARK    8  A    between atoms: I2_2  and  C7_16 
REMARK    9  A    between atoms: I2_2  and  C11_20 
REMARK   10  A    between atoms: I3_3  and  N1_8 
REMARK   11  A    between atoms: I3_3  and  C3_12 
REMARK   12  A    between atoms: I3_3  and  C4_13 
REMARK   13  A    between atoms: I3_3  and  C5_14 
REMARK   14  A    between atoms: I3_3  and  C10_19 
REMARK   15  A    between atoms: O3_6  and  C6_15 
REMARK   16  A    between atoms: O4_7  and  C5_14 
REMARK   17  A    between atoms: N1_8  and  C6_15 
REMARK   18  A    between atoms: N1_8  and  C10_19 
REMARK   19  A    between atoms: N2_9  and  C5_14 
REMARK   20  A    between atoms: N2_9  and  C11_20 
REMARK   21  A    between atoms: C1_10  and  C2_11 
REMARK   22  A    between atoms: C1_10  and  C4_13 
REMARK   23  A    between atoms: C1_10  and  C5_14 
REMARK   24  A    between atoms: C2_11  and  C4_13 
REMARK   25  A    between atoms: C2_11  and  C6_15 
REMARK   26  A    between atoms: C3_12  and  C4_13 
REMARK   27  A    between atoms: C3_12  and  C5_14 
REMARK   28  A    between atoms: C3_12  and  C6_15 
REMARK   29  A    between atoms: C4_13  and  C6_15 
REMARK   30  A    between atoms: C5_14  and  C6_15 
REMARK   31  A    between atoms: C5_14  and  C7_16 
REMARK   32  A    between atoms: C5_14  and  C9_18 
REMARK   33  A    between atoms: C6_15  and  C7_16 
REMARK   34  A    between atoms: C6_15  and  C8_17 
ROOT
HETATM    1  I1  UNL     1     -37.629  13.045  48.814  1.00  0.00    -0.189 I 
HETATM    2  I2  UNL     1     -40.377  13.781  48.552  1.00  0.00    -0.180 I 
HETATM    3  I3  UNL     1     -38.576  15.470  49.990  1.00  0.00    -0.180 I 
HETATM    4  O1  UNL     1     -39.951  15.838  49.859  1.00  0.00     0.000 OA
HETATM    5  O2  UNL     1     -40.852  14.993  49.140  1.00  0.00     0.000 OA
HETATM    6  O3  UNL     1     -37.818  15.630  50.274  1.00  0.00     0.000 OA
HETATM    7  O4  UNL     1     -40.519  13.094  48.116  1.00  0.00     0.000 OA
HETATM    8  N1  UNL     1     -37.345  14.417  49.686  1.00  0.00     0.000 N 
HETATM    9  N2  UNL     1     -39.145  12.726  48.247  1.00  0.00     0.000 N 
HETATM   10  C1  UNL     1     -38.103  14.258  49.402  1.00  0.00     0.058 A 
HETATM   11  C2  UNL     1     -39.002  13.413  48.683  1.00  0.00     0.058 A 
HETATM   12  C3  UNL     1     -38.245  13.572  48.967  1.00  0.00     0.052 A 
HETATM   13  C4  UNL     1     -39.477  14.625  49.271  1.00  0.00     0.058 A 
HETATM   14  C5  UNL     1     -39.619  13.939  48.835  1.00  0.00     0.050 A 
HETATM   15  C6  UNL     1     -38.718  14.785  49.555  1.00  0.00     0.050 A 
HETATM   16  C7  UNL     1     -40.093  15.153  49.424  1.00  0.00     0.056 A 
HETATM   17  C8  UNL     1     -37.203  15.102  50.121  1.00  0.00     0.049 A 
HETATM   18  C9  UNL     1     -39.903  12.568  47.964  1.00  0.00     0.049 A 
HETATM   19  C10 UNL     1     -36.444  15.262  50.405  1.00  0.00     0.035 A 
HETATM   20  C11 UNL     1     -40.045  11.882  47.528  1.00  0.00     0.035 A 
ENDROOT
TORSDOF 34
ENDMDL
