MODEL 1
REMARK VINA RESULT:     119.1      0.000      0.000
REMARK  11 active torsions:
REMARK  status: ('A' for Active; 'I' for Inactive)
REMARK    1  A    between atoms: N1_4  and  C1_6 
REMARK    2  A    between atoms: N1_4  and  C9_14 
REMARK    3  A    between atoms: N2_5  and  C7_12 
REMARK    4  A    between atoms: C1_6  and  C5_10 
REMARK    5  A    between atoms: C3_8  and  C4_9 
REMARK    6  A    between atoms: C3_8  and  C5_10 
REMARK    7  A    between atoms: C3_8  and  C7_12 
REMARK    8  A    between atoms: C4_9  and  C5_10 
REMARK    9  A    between atoms: C4_9  and  C6_11 
REMARK   10  A    between atoms: C5_10  and  C7_12 
REMARK   11  A    between atoms: C6_11  and  C7_12 
ROOT
HETATM    1  O1  UNL     1     -37.586  15.010  50.127  1.00  0.00     0.000 OA
HETATM    2  O2  UNL     1     -36.355  12.321  50.447  1.00  0.00    -0.302 OA
HETATM    3  O3  UNL     1     -37.759  12.068  50.528  1.00  0.00    -0.302 OA
HETATM    4  N1  UNL     1     -38.062  13.677  50.321  1.00  0.00     0.000 N 
HETATM    5  N2  UNL     1     -41.324  15.583  50.173  1.00  0.00    -0.280 NA
HETATM    6  C1  UNL     1     -38.990  14.756  50.207  1.00  0.00     0.042 A 
HETATM    7  C2  UNL     1     -38.213  14.481  50.218  1.00  0.00     0.063 A 
HETATM    8  C3  UNL     1     -39.141  15.561  50.104  1.00  0.00     0.042 A 
HETATM    9  C4  UNL     1     -39.617  14.227  50.299  1.00  0.00     0.042 A 
HETATM   10  C5  UNL     1     -40.545  15.307  50.184  1.00  0.00     0.052 A 
HETATM   11  C6  UNL     1     -39.919  15.836  50.092  1.00  0.00     0.052 A 
HETATM   12  C7  UNL     1     -40.394  14.503  50.287  1.00  0.00     0.052 A 
HETATM   13  C8  UNL     1     -37.284  13.401  50.333  1.00  0.00     0.244 A 
HETATM   14  C9  UNL     1     -37.133  12.597  50.436  1.00  0.00     0.293 A 
ENDROOT
TORSDOF 11
ENDMDL
