MODEL 1
REMARK VINA RESULT:     361.5      0.000      0.000
REMARK WARNING: 32 MAX_TORS EXCEEDED!!!
REMARK  35 active torsions:
REMARK  status: ('A' for Active; 'I' for Inactive)
REMARK    1  A    between atoms: F1_1  and  C16_20 
REMARK    2  A    between atoms: O1_2  and  C4_8 
REMARK    3  A    between atoms: O1_2  and  C12_16 
REMARK    4  A    between atoms: C2_6  and  C6_10 
REMARK    5  A    between atoms: C2_6  and  C8_12 
REMARK    6  A    between atoms: C2_6  and  C9_13 
REMARK    7  A    between atoms: C2_6  and  C11_15 
REMARK    8  A    between atoms: C3_7  and  C5_9 
REMARK    9  A    between atoms: C3_7  and  C6_10 
REMARK   10  A    between atoms: C3_7  and  C7_11 
REMARK   11  A    between atoms: C3_7  and  C14_18 
REMARK   12  A    between atoms: C4_8  and  C7_11 
REMARK   13  A    between atoms: C4_8  and  C9_13 
REMARK   14  A    between atoms: C4_8  and  C13_17 
REMARK   15  A    between atoms: C5_9  and  C9_13 
REMARK   16  A    between atoms: C5_9  and  C13_17 
REMARK   17  A    between atoms: C5_9  and  C19_23 
REMARK   18  A    between atoms: C6_10  and  C17_21 
REMARK   19  A    between atoms: C7_11  and  C10_14 
REMARK   20  A    between atoms: C8_12  and  C9_13 
REMARK   21  A    between atoms: C9_13  and  C10_14 
REMARK   22  A    between atoms: C9_13  and  C14_18 
REMARK   23  A    between atoms: C9_13  and  C19_23 
REMARK   24  A    between atoms: C10_14  and  C13_17 
REMARK   25  A    between atoms: C11_15  and  C12_16 
REMARK   26  A    between atoms: C11_15  and  C16_20 
REMARK   27  A    between atoms: C11_15  and  C17_21 
REMARK   28  A    between atoms: C12_16  and  C15_19 
REMARK   29  A    between atoms: C12_16  and  C17_21 
REMARK   30  A    between atoms: C13_17  and  C14_18 
REMARK   31  A    between atoms: C13_17  and  C19_23 
REMARK   32  A    between atoms: C13_17  and  C20_24 
REMARK   33  A    between atoms: C15_19  and  C16_20 
REMARK   34  A    between atoms: C16_20  and  C17_21 
REMARK   35  A    between atoms: C18_22  and  C19_23 
ROOT
HETATM    1  F1  UNL     1     -35.928  15.808  50.182  1.00  0.00    -0.479 F 
HETATM    2  O1  UNL     1     -37.519  12.804  50.247  1.00  0.00     0.000 OA
HETATM    3  N1  UNL     1     -40.608  14.774  50.311  1.00  0.00    -0.015 N 
HETATM    4  N2  UNL     1     -41.281  10.722  50.361  1.00  0.00    -0.183 N 
HETATM    5  C1  UNL     1     -38.129  13.351  50.258  1.00  0.00     0.042 A 
HETATM    6  C2  UNL     1     -38.544  14.064  50.263  1.00  0.00     0.061 A 
HETATM    7  C3  UNL     1     -38.839  12.940  50.280  1.00  0.00     0.037 A 
HETATM    8  C4  UNL     1     -38.664  12.134  50.282  1.00  0.00     0.017 A 
HETATM    9  C5  UNL     1     -39.369  14.062  50.285  1.00  0.00     0.140 A 
HETATM   10  C6  UNL     1     -37.580  13.965  50.239  1.00  0.00     0.063 A 
HETATM   11  C7  UNL     1     -37.848  12.053  50.262  1.00  0.00     0.007 A 
HETATM   12  C8  UNL     1     -39.783  14.776  50.290  1.00  0.00     0.192 A 
HETATM   13  C9  UNL     1     -39.625  13.191  50.298  1.00  0.00     0.067 A 
HETATM   14  C10 UNL     1     -39.275  11.579  50.302  1.00  0.00     0.029 A 
HETATM   15  C11 UNL     1     -37.837  14.750  50.240  1.00  0.00     0.067 A 
HETATM   16  C12 UNL     1     -36.772  13.796  50.220  1.00  0.00     0.069 A 
HETATM   17  C13 UNL     1     -40.235  12.637  50.318  1.00  0.00     0.063 A 
HETATM   18  C14 UNL     1     -40.060  11.831  50.320  1.00  0.00     0.030 A 
HETATM   19  C15 UNL     1     -37.286  15.363  50.221  1.00  0.00     0.085 A 
HETATM   20  C16 UNL     1     -36.222  14.410  50.201  1.00  0.00     0.085 A 
HETATM   21  C17 UNL     1     -36.480  15.195  50.201  1.00  0.00     0.085 A 
HETATM   22  C18 UNL     1     -41.022  15.487  50.316  1.00  0.00     0.241 A 
HETATM   23  C19 UNL     1     -41.018  14.059  50.327  1.00  0.00     0.193 A 
HETATM   24  C20 UNL     1     -40.670  11.276  50.341  1.00  0.00     0.108 A 
ENDROOT
TORSDOF 35
ENDMDL
