MODEL 1
REMARK VINA RESULT:     468.7      0.000      0.000
REMARK WARNING: 32 MAX_TORS EXCEEDED!!!
REMARK  43 active torsions:
REMARK  status: ('A' for Active; 'I' for Inactive)
REMARK    1  A    between atoms: CL1_1  and  C17_28 
REMARK    2  A    between atoms: CL1_1  and  C18_29 
REMARK    3  A    between atoms: S1_2  and  S2_3 
REMARK    4  A    between atoms: S1_2  and  C2_13 
REMARK    5  A    between atoms: S1_2  and  C5_16 
REMARK    6  A    between atoms: S1_2  and  C7_18 
REMARK    7  A    between atoms: S1_2  and  C15_26 
REMARK    8  A    between atoms: S2_3  and  C12_23 
REMARK    9  A    between atoms: O1_4  and  O2_5 
REMARK   10  A    between atoms: O1_4  and  C9_20 
REMARK   11  A    between atoms: O2_5  and  C10_21 
REMARK   12  A    between atoms: O3_6  and  C5_16 
REMARK   13  A    between atoms: O3_6  and  C6_17 
REMARK   14  A    between atoms: O4_7  and  C12_23 
REMARK   15  A    between atoms: O4_7  and  C15_26 
REMARK   16  A    between atoms: O5_8  and  C2_13 
REMARK   17  A    between atoms: O5_8  and  C4_15 
REMARK   18  A    between atoms: O5_8  and  C5_16 
REMARK   19  A    between atoms: O5_8  and  C7_18 
REMARK   20  A    between atoms: O6_9  and  C16_27 
REMARK   21  A    between atoms: N1_10  and  C15_26 
REMARK   22  A    between atoms: N2_11  and  C16_27 
REMARK   23  A    between atoms: C1_12  and  C8_19 
REMARK   24  A    between atoms: C1_12  and  C9_20 
REMARK   25  A    between atoms: C2_13  and  C5_16 
REMARK   26  A    between atoms: C2_13  and  C11_22 
REMARK   27  A    between atoms: C3_14  and  C6_17 
REMARK   28  A    between atoms: C3_14  and  C8_19 
REMARK   29  A    between atoms: C3_14  and  C9_20 
REMARK   30  A    between atoms: C4_15  and  C7_18 
REMARK   31  A    between atoms: C4_15  and  C14_25 
REMARK   32  A    between atoms: C5_16  and  C7_18 
REMARK   33  A    between atoms: C5_16  and  C12_23 
REMARK   34  A    between atoms: C6_17  and  C7_18 
REMARK   35  A    between atoms: C6_17  and  C9_20 
REMARK   36  A    between atoms: C6_17  and  C10_21 
REMARK   37  A    between atoms: C8_19  and  C10_21 
REMARK   38  A    between atoms: C9_20  and  C10_21 
REMARK   39  A    between atoms: C10_21  and  C11_22 
REMARK   40  A    between atoms: C12_23  and  C14_25 
REMARK   41  A    between atoms: C15_26  and  C17_28 
REMARK   42  A    between atoms: C16_27  and  C17_28 
REMARK   43  A    between atoms: C16_27  and  C18_29 
ROOT
HETATM    1 CL1  UNL     1     -36.480  12.217  48.927  1.00  0.00    -0.270 Cl
HETATM    2  S1  UNL     1     -38.973  11.525  48.531  1.00  0.00    -0.196 SA
HETATM    3  S2  UNL     1     -41.070  11.193  48.314  1.00  0.00    -0.199 SA
HETATM    4  O1  UNL     1     -41.295  15.124  50.129  1.00  0.00     0.000 OA
HETATM    5  O2  UNL     1     -40.192  15.781  50.466  1.00  0.00     0.000 OA
HETATM    6  O3  UNL     1     -41.229  12.751  49.031  1.00  0.00     0.000 OA
HETATM    7  O4  UNL     1     -38.666  10.827  48.217  1.00  0.00     0.000 OA
HETATM    8  O5  UNL     1     -39.278  12.224  48.846  1.00  0.00     0.000 OA
HETATM    9  O6  UNL     1     -37.591  10.575  48.133  1.00  0.00     0.000 OA
HETATM   10  N1  UNL     1     -38.207  11.794  48.679  1.00  0.00     0.000 N 
HETATM   11  N2  UNL     1     -36.817  10.308  48.033  1.00  0.00     0.000 N 
HETATM   12  C1  UNL     1     -39.858  13.567  49.451  1.00  0.00     0.016 A 
HETATM   13  C2  UNL     1     -39.805  12.820  49.106  1.00  0.00     0.027 A 
HETATM   14  C3  UNL     1     -39.173  13.975  49.661  1.00  0.00     0.010 A 
HETATM   15  C4  UNL     1     -39.739  11.257  48.384  1.00  0.00     0.058 A 
HETATM   16  C5  UNL     1     -40.435  11.664  48.551  1.00  0.00     0.053 A 
HETATM   17  C6  UNL     1     -40.599  13.907  49.586  1.00  0.00     0.017 A 
HETATM   18  C7  UNL     1     -40.490  12.412  48.896  1.00  0.00     0.038 A 
HETATM   19  C8  UNL     1     -40.652  14.654  49.930  1.00  0.00     0.004 A 
HETATM   20  C9  UNL     1     -39.966  15.062  50.140  1.00  0.00     0.004 A 
HETATM   21  C10 UNL     1     -39.227  14.723  50.006  1.00  0.00     0.005 A 
HETATM   22  C11 UNL     1     -38.434  13.636  49.526  1.00  0.00     0.010 A 
HETATM   23  C12 UNL     1     -39.941  10.534  48.043  1.00  0.00     0.061 A 
HETATM   24  C13 UNL     1     -41.011  15.818  50.459  1.00  0.00     0.000 A 
HETATM   25  C14 UNL     1     -40.764  10.494  47.999  1.00  0.00     0.063 A 
HETATM   26  C15 UNL     1     -37.559  11.323  48.481  1.00  0.00     0.075 A 
HETATM   27  C16 UNL     1     -36.765  11.518  48.595  1.00  0.00     0.076 A 
HETATM   28  C17 UNL     1     -36.307  10.890  48.318  1.00  0.00     0.076 A 
HETATM   29  C18 UNL     1     -35.483  10.851  48.325  1.00  0.00     0.071 A 
ENDROOT
TORSDOF 43
ENDMDL
