MODEL 1
REMARK VINA RESULT:     301.9      0.000      0.000
REMARK WARNING: 32 MAX_TORS EXCEEDED!!!
REMARK  36 active torsions:
REMARK  status: ('A' for Active; 'I' for Inactive)
REMARK    1  A    between atoms: O1_1  and  C2_6 
REMARK    2  A    between atoms: O1_1  and  C16_20 
REMARK    3  A    between atoms: O2_2  and  C8_12 
REMARK    4  A    between atoms: O2_2  and  C9_13 
REMARK    5  A    between atoms: O2_2  and  C15_19 
REMARK    6  A    between atoms: O2_2  and  C19_23 
REMARK    7  A    between atoms: O3_3  and  C1_5 
REMARK    8  A    between atoms: O3_3  and  C3_7 
REMARK    9  A    between atoms: O3_3  and  C6_10 
REMARK   10  A    between atoms: C1_5  and  C7_11 
REMARK   11  A    between atoms: C1_5  and  C8_12 
REMARK   12  A    between atoms: C1_5  and  C10_14 
REMARK   13  A    between atoms: C2_6  and  C4_8 
REMARK   14  A    between atoms: C2_6  and  C6_10 
REMARK   15  A    between atoms: C3_7  and  C4_8 
REMARK   16  A    between atoms: C3_7  and  C5_9 
REMARK   17  A    between atoms: C3_7  and  C7_11 
REMARK   18  A    between atoms: C3_7  and  C10_14 
REMARK   19  A    between atoms: C5_9  and  C6_10 
REMARK   20  A    between atoms: C6_10  and  C7_11 
REMARK   21  A    between atoms: C8_12  and  C10_14 
REMARK   22  A    between atoms: C8_12  and  C21_25 
REMARK   23  A    between atoms: C9_13  and  C17_21 
REMARK   24  A    between atoms: C10_14  and  C15_19 
REMARK   25  A    between atoms: C11_15  and  C12_16 
REMARK   26  A    between atoms: C11_15  and  C14_18 
REMARK   27  A    between atoms: C11_15  and  C18_22 
REMARK   28  A    between atoms: C12_16  and  C14_18 
REMARK   29  A    between atoms: C13_17  and  C14_18 
REMARK   30  A    between atoms: C13_17  and  C15_19 
REMARK   31  A    between atoms: C15_19  and  C16_20 
REMARK   32  A    between atoms: C15_19  and  C20_24 
REMARK   33  A    between atoms: C16_20  and  C19_23 
REMARK   34  A    between atoms: C16_20  and  C21_25 
REMARK   35  A    between atoms: C19_23  and  C20_24 
REMARK   36  A    between atoms: C20_24  and  C21_25 
ROOT
HETATM    1  O1  UNL     1     -36.398  12.574  50.449  1.00  0.00     0.000 OA
HETATM    2  O2  UNL     1     -38.291  13.659  50.475  1.00  0.00     0.000 OA
HETATM    3  O3  UNL     1     -38.556  12.255  50.456  1.00  0.00     0.000 OA
HETATM    4  N1  UNL     1     -40.186  14.742  50.502  1.00  0.00     0.000 N 
HETATM    5  C1  UNL     1     -37.361  11.916  50.444  1.00  0.00     0.000 A 
HETATM    6  C2  UNL     1     -36.735  11.379  50.432  1.00  0.00     0.000 A 
HETATM    7  C3  UNL     1     -38.139  11.644  50.444  1.00  0.00     0.000 A 
HETATM    8  C4  UNL     1     -37.208  12.727  50.455  1.00  0.00     0.000 A 
HETATM    9  C5  UNL     1     -36.888  10.568  50.421  1.00  0.00     0.000 A 
HETATM   10  C6  UNL     1     -38.292  10.833  50.433  1.00  0.00     0.000 A 
HETATM   11  C7  UNL     1     -37.667  10.295  50.421  1.00  0.00     0.000 A 
HETATM   12  C8  UNL     1     -37.055  13.538  50.467  1.00  0.00     0.000 A 
HETATM   13  C9  UNL     1     -39.376  14.590  50.495  1.00  0.00     0.000 A 
HETATM   14  C10 UNL     1     -38.019  12.880  50.462  1.00  0.00     0.000 A 
HETATM   15  C11 UNL     1     -40.033  15.553  50.514  1.00  0.00     0.000 A 
HETATM   16  C12 UNL     1     -40.997  14.895  50.509  1.00  0.00     0.000 A 
HETATM   17  C13 UNL     1     -39.102  13.811  50.482  1.00  0.00     0.000 A 
HETATM   18  C14 UNL     1     -40.339  13.932  50.491  1.00  0.00     0.000 A 
HETATM   19  C15 UNL     1     -37.680  14.076  50.478  1.00  0.00     0.000 A 
HETATM   20  C16 UNL     1     -36.276  13.811  50.467  1.00  0.00     0.000 A 
HETATM   21  C17 UNL     1     -39.254  15.826  50.513  1.00  0.00     0.000 A 
HETATM   22  C18 UNL     1     -41.269  15.674  50.522  1.00  0.00     0.000 A 
HETATM   23  C19 UNL     1     -37.528  14.886  50.490  1.00  0.00     0.000 A 
HETATM   24  C20 UNL     1     -36.123  14.622  50.478  1.00  0.00     0.000 A 
HETATM   25  C21 UNL     1     -36.750  15.159  50.489  1.00  0.00     0.000 A 
ENDROOT
TORSDOF 36
ENDMDL
