MODEL 1
REMARK VINA RESULT:     205.0      0.000      0.000
REMARK  31 active torsions:
REMARK  status: ('A' for Active; 'I' for Inactive)
REMARK    1  A    between atoms: N2_2  and  C1_4 
REMARK    2  A    between atoms: N2_2  and  C3_6 
REMARK    3  A    between atoms: N2_2  and  C6_9 
REMARK    4  A    between atoms: N3_3  and  C1_4 
REMARK    5  A    between atoms: N3_3  and  C4_7 
REMARK    6  A    between atoms: C1_4  and  C8_11 
REMARK    7  A    between atoms: C2_5  and  C3_6 
REMARK    8  A    between atoms: C3_6  and  C5_8 
REMARK    9  A    between atoms: C3_6  and  C9_12 
REMARK   10  A    between atoms: C4_7  and  C6_9 
REMARK   11  A    between atoms: C5_8  and  C7_10 
REMARK   12  A    between atoms: C5_8  and  C10_13 
REMARK   13  A    between atoms: C5_8  and  C16_19 
REMARK   14  A    between atoms: C7_10  and  C9_12 
REMARK   15  A    between atoms: C7_10  and  C17_20 
REMARK   16  A    between atoms: C8_11  and  C9_12 
REMARK   17  A    between atoms: C8_11  and  C13_16 
REMARK   18  A    between atoms: C9_12  and  C10_13 
REMARK   19  A    between atoms: C9_12  and  C12_15 
REMARK   20  A    between atoms: C9_12  and  C14_17 
REMARK   21  A    between atoms: C9_12  and  C16_19 
REMARK   22  A    between atoms: C10_13  and  C11_14 
REMARK   23  A    between atoms: C10_13  and  C13_16 
REMARK   24  A    between atoms: C10_13  and  C15_18 
REMARK   25  A    between atoms: C11_14  and  C14_17 
REMARK   26  A    between atoms: C11_14  and  C17_20 
REMARK   27  A    between atoms: C12_15  and  C13_16 
REMARK   28  A    between atoms: C13_16  and  C16_19 
REMARK   29  A    between atoms: C13_16  and  C14_17 
REMARK   30  A    between atoms: C14_17  and  C15_18 
REMARK   31  A    between atoms: C15_18  and  C17_20 
ROOT
HETATM    1  N1  UNL     1     -38.725  13.572  50.497  1.00  0.00     0.000 N 
HETATM    2  N2  UNL     1     -39.393  11.984  50.503  1.00  0.00     0.000 N 
HETATM    3  N3  UNL     1     -38.177  11.433  50.518  1.00  0.00     0.000 N 
HETATM    4  C1  UNL     1     -38.245  12.901  50.506  1.00  0.00     0.000 A 
HETATM    5  C2  UNL     1     -38.586  12.150  50.509  1.00  0.00     0.000 A 
HETATM    6  C3  UNL     1     -39.547  13.491  50.490  1.00  0.00     0.000 A 
HETATM    7  C4  UNL     1     -39.485  11.164  50.509  1.00  0.00     0.000 A 
HETATM    8  C5  UNL     1     -38.384  14.323  50.494  1.00  0.00     0.000 A 
HETATM    9  C6  UNL     1     -38.734  10.823  50.518  1.00  0.00     0.000 A 
HETATM   10  C7  UNL     1     -40.026  14.162  50.481  1.00  0.00     0.000 A 
HETATM   11  C8  UNL     1     -37.564  14.405  50.500  1.00  0.00     0.000 A 
HETATM   12  C9  UNL     1     -38.865  14.995  50.484  1.00  0.00     0.000 A 
HETATM   13  C10 UNL     1     -39.686  14.913  50.478  1.00  0.00     0.000 A 
HETATM   14  C11 UNL     1     -40.847  14.080  50.474  1.00  0.00     0.000 A 
HETATM   15  C12 UNL     1     -37.223  15.156  50.497  1.00  0.00     0.000 A 
HETATM   16  C13 UNL     1     -38.524  15.746  50.481  1.00  0.00     0.000 A 
HETATM   17  C14 UNL     1     -40.165  15.584  50.468  1.00  0.00     0.000 A 
HETATM   18  C15 UNL     1     -41.328  14.752  50.465  1.00  0.00     0.000 A 
HETATM   19  C16 UNL     1     -37.703  15.826  50.488  1.00  0.00     0.000 A 
HETATM   20  C17 UNL     1     -40.987  15.503  50.462  1.00  0.00     0.000 A 
ENDROOT
TORSDOF 31
ENDMDL
