MODEL 1
REMARK VINA RESULT:     157.1      0.000      0.000
REMARK  22 active torsions:
REMARK  status: ('A' for Active; 'I' for Inactive)
REMARK    1  A    between atoms: O2_2  and  C13_17 
REMARK    2  A    between atoms: O3_3  and  C12_16 
REMARK    3  A    between atoms: C1_5  and  C5_9 
REMARK    4  A    between atoms: C1_5  and  C8_12 
REMARK    5  A    between atoms: C1_5  and  C10_14 
REMARK    6  A    between atoms: C2_6  and  C3_7 
REMARK    7  A    between atoms: C3_7  and  C4_8 
REMARK    8  A    between atoms: C3_7  and  C5_9 
REMARK    9  A    between atoms: C3_7  and  C8_12 
REMARK   10  A    between atoms: C3_7  and  C10_14 
REMARK   11  A    between atoms: C4_8  and  C6_10 
REMARK   12  A    between atoms: C5_9  and  C11_15 
REMARK   13  A    between atoms: C5_9  and  C13_17 
REMARK   14  A    between atoms: C6_10  and  C8_12 
REMARK   15  A    between atoms: C7_11  and  C8_12 
REMARK   16  A    between atoms: C9_13  and  C10_14 
REMARK   17  A    between atoms: C9_13  and  C12_16 
REMARK   18  A    between atoms: C9_13  and  C13_17 
REMARK   19  A    between atoms: C10_14  and  C11_15 
REMARK   20  A    between atoms: C10_14  and  C13_17 
REMARK   21  A    between atoms: C11_15  and  C12_16 
REMARK   22  A    between atoms: C12_16  and  C13_17 
ROOT
HETATM    1  O1  UNL     1     -38.375  13.280  50.278  1.00  0.00     0.000 OA
HETATM    2  O2  UNL     1     -41.264  13.992  50.328  1.00  0.00     0.000 OA
HETATM    3  O3  UNL     1     -41.327  15.637  50.440  1.00  0.00     0.000 OA
HETATM    4  N1  UNL     1     -36.979  14.158  50.338  1.00  0.00     0.000 N 
HETATM    5  C1  UNL     1     -37.709  14.541  50.364  1.00  0.00     0.000 A 
HETATM    6  C2  UNL     1     -38.408  14.102  50.334  1.00  0.00     0.000 A 
HETATM    7  C3  UNL     1     -37.742  15.364  50.420  1.00  0.00     0.000 A 
HETATM    8  C4  UNL     1     -36.282  14.596  50.367  1.00  0.00     0.000 A 
HETATM    9  C5  UNL     1     -39.138  14.486  50.361  1.00  0.00     0.000 A 
HETATM   10  C6  UNL     1     -37.044  15.802  50.450  1.00  0.00     0.000 A 
HETATM   11  C7  UNL     1     -35.552  14.213  50.341  1.00  0.00     0.000 A 
HETATM   12  C8  UNL     1     -36.314  15.418  50.423  1.00  0.00     0.000 A 
HETATM   13  C9  UNL     1     -39.835  14.047  50.331  1.00  0.00     0.000 A 
HETATM   14  C10 UNL     1     -39.169  15.309  50.417  1.00  0.00     0.000 A 
HETATM   15  C11 UNL     1     -40.565  14.431  50.358  1.00  0.00     0.000 A 
HETATM   16  C12 UNL     1     -39.899  15.692  50.444  1.00  0.00     0.000 A 
HETATM   17  C13 UNL     1     -40.598  15.253  50.414  1.00  0.00     0.000 A 
ENDROOT
TORSDOF 22
ENDMDL
MODEL 2
REMARK VINA RESULT:     158.2      1.405      1.501
REMARK  22 active torsions:
REMARK  status: ('A' for Active; 'I' for Inactive)
REMARK    1  A    between atoms: O2_2  and  C13_17 
REMARK    2  A    between atoms: O3_3  and  C12_16 
REMARK    3  A    between atoms: C1_5  and  C5_9 
REMARK    4  A    between atoms: C1_5  and  C8_12 
REMARK    5  A    between atoms: C1_5  and  C10_14 
REMARK    6  A    between atoms: C2_6  and  C3_7 
REMARK    7  A    between atoms: C3_7  and  C4_8 
REMARK    8  A    between atoms: C3_7  and  C5_9 
REMARK    9  A    between atoms: C3_7  and  C8_12 
REMARK   10  A    between atoms: C3_7  and  C10_14 
REMARK   11  A    between atoms: C4_8  and  C6_10 
REMARK   12  A    between atoms: C5_9  and  C11_15 
REMARK   13  A    between atoms: C5_9  and  C13_17 
REMARK   14  A    between atoms: C6_10  and  C8_12 
REMARK   15  A    between atoms: C7_11  and  C8_12 
REMARK   16  A    between atoms: C9_13  and  C10_14 
REMARK   17  A    between atoms: C9_13  and  C12_16 
REMARK   18  A    between atoms: C9_13  and  C13_17 
REMARK   19  A    between atoms: C10_14  and  C11_15 
REMARK   20  A    between atoms: C10_14  and  C13_17 
REMARK   21  A    between atoms: C11_15  and  C12_16 
REMARK   22  A    between atoms: C12_16  and  C13_17 
ROOT
HETATM    1  O1  UNL     1     -38.377  15.016  47.952  1.00  0.00     0.000 OA
HETATM    2  O2  UNL     1     -41.261  15.070  48.681  1.00  0.00     0.000 OA
HETATM    3  O3  UNL     1     -41.325  15.555  50.257  1.00  0.00     0.000 OA
HETATM    4  N1  UNL     1     -36.984  15.352  48.770  1.00  0.00     0.000 N 
HETATM    5  C1  UNL     1     -37.712  15.426  49.149  1.00  0.00     0.000 A 
HETATM    6  C2  UNL     1     -38.410  15.258  48.740  1.00  0.00     0.000 A 
HETATM    7  C3  UNL     1     -37.745  15.669  49.937  1.00  0.00     0.000 A 
HETATM    8  C4  UNL     1     -36.288  15.520  49.178  1.00  0.00     0.000 A 
HETATM    9  C5  UNL     1     -39.139  15.332  49.119  1.00  0.00     0.000 A 
HETATM   10  C6  UNL     1     -37.049  15.837  50.345  1.00  0.00     0.000 A 
HETATM   11  C7  UNL     1     -35.559  15.446  48.799  1.00  0.00     0.000 A 
HETATM   12  C8  UNL     1     -36.320  15.762  49.965  1.00  0.00     0.000 A 
HETATM   13  C9  UNL     1     -39.835  15.164  48.710  1.00  0.00     0.000 A 
HETATM   14  C10 UNL     1     -39.170  15.575  49.907  1.00  0.00     0.000 A 
HETATM   15  C11 UNL     1     -40.564  15.238  49.090  1.00  0.00     0.000 A 
HETATM   16  C12 UNL     1     -39.899  15.649  50.286  1.00  0.00     0.000 A 
HETATM   17  C13 UNL     1     -40.597  15.481  49.877  1.00  0.00     0.000 A 
ENDROOT
TORSDOF 22
ENDMDL
