MODEL 1
REMARK VINA RESULT:     216.9      0.000      0.000
REMARK  27 active torsions:
REMARK  status: ('A' for Active; 'I' for Inactive)
REMARK    1  A    between atoms: CL1_1  and  C11_16 
REMARK    2  A    between atoms: O1_2  and  C5_10 
REMARK    3  A    between atoms: O2_3  and  C4_9 
REMARK    4  A    between atoms: O2_3  and  C9_14 
REMARK    5  A    between atoms: N1_4  and  C4_9 
REMARK    6  A    between atoms: N2_5  and  C5_10 
REMARK    7  A    between atoms: C1_6  and  C3_8 
REMARK    8  A    between atoms: C2_7  and  C6_11 
REMARK    9  A    between atoms: C2_7  and  C8_13 
REMARK   10  A    between atoms: C2_7  and  C10_15 
REMARK   11  A    between atoms: C2_7  and  C13_18 
REMARK   12  A    between atoms: C3_8  and  C7_12 
REMARK   13  A    between atoms: C4_9  and  C5_10 
REMARK   14  A    between atoms: C5_10  and  C9_14 
REMARK   15  A    between atoms: C6_11  and  C7_12 
REMARK   16  A    between atoms: C6_11  and  C16_21 
REMARK   17  A    between atoms: C7_12  and  C11_16 
REMARK   18  A    between atoms: C7_12  and  C13_18 
REMARK   19  A    between atoms: C8_13  and  C9_14 
REMARK   20  A    between atoms: C8_13  and  C10_15 
REMARK   21  A    between atoms: C10_15  and  C11_16 
REMARK   22  A    between atoms: C12_17  and  C13_18 
REMARK   23  A    between atoms: C12_17  and  C15_20 
REMARK   24  A    between atoms: C13_18  and  C14_19 
REMARK   25  A    between atoms: C13_18  and  C16_21 
REMARK   26  A    between atoms: C14_19  and  C15_20 
REMARK   27  A    between atoms: C15_20  and  C16_21 
ROOT
HETATM    1 CL1  UNL     1     -41.306  15.210  50.259  1.00  0.00    -0.251 Cl
HETATM    2  O1  UNL     1     -37.195  13.936  47.911  1.00  0.00     0.000 OA
HETATM    3  O2  UNL     1     -36.786  15.043  48.901  1.00  0.00     0.000 OA
HETATM    4  N1  UNL     1     -38.058  15.249  49.440  1.00  0.00     0.000 N 
HETATM    5  N2  UNL     1     -38.550  13.916  48.249  1.00  0.00     0.000 N 
HETATM    6  C1  UNL     1     -38.869  15.170  49.577  1.00  0.00     0.020 A 
HETATM    7  C2  UNL     1     -39.404  14.660  49.212  1.00  0.00     0.022 A 
HETATM    8  C3  UNL     1     -39.263  14.101  48.621  1.00  0.00     0.012 A 
HETATM    9  C4  UNL     1     -37.803  14.243  48.376  1.00  0.00     0.001 A 
HETATM   10  C5  UNL     1     -37.584  14.836  48.906  1.00  0.00     0.002 A 
HETATM   11  C6  UNL     1     -39.921  13.673  48.370  1.00  0.00     0.010 A 
HETATM   12  C7  UNL     1     -40.235  14.661  49.432  1.00  0.00     0.033 A 
HETATM   13  C8  UNL     1     -39.126  15.717  50.187  1.00  0.00     0.025 A 
HETATM   14  C9  UNL     1     -37.672  15.815  49.899  1.00  0.00     0.004 A 
HETATM   15  C10 UNL     1     -40.511  15.202  50.041  1.00  0.00     0.052 A 
HETATM   16  C11 UNL     1     -39.953  15.734  50.421  1.00  0.00     0.052 A 
HETATM   17  C12 UNL     1     -39.839  13.100  47.781  1.00  0.00     0.003 A 
HETATM   18  C13 UNL     1     -40.660  13.816  48.707  1.00  0.00     0.010 A 
HETATM   19  C14 UNL     1     -40.497  12.671  47.529  1.00  0.00     0.002 A 
HETATM   20  C15 UNL     1     -41.318  13.385  48.454  1.00  0.00     0.002 A 
HETATM   21  C16 UNL     1     -41.237  12.814  47.866  1.00  0.00     0.002 A 
ENDROOT
TORSDOF 27
ENDMDL
