MODEL 1
REMARK VINA RESULT:      44.2      0.000      0.000
REMARK  11 active torsions:
REMARK  status: ('A' for Active; 'I' for Inactive)
REMARK    1  A    between atoms: C1_5  and  C3_7 
REMARK    2  A    between atoms: C1_5  and  C4_8 
REMARK    3  A    between atoms: C1_5  and  C6_10 
REMARK    4  A    between atoms: C2_6  and  C3_7 
REMARK    5  A    between atoms: C2_6  and  C6_10 
REMARK    6  A    between atoms: C2_6  and  C7_11 
REMARK    7  A    between atoms: C3_7  and  C5_9 
REMARK    8  A    between atoms: C4_8  and  C5_9 
REMARK    9  A    between atoms: C4_8  and  C6_10 
REMARK   10  A    between atoms: C5_9  and  C6_10 
REMARK   11  A    between atoms: C5_9  and  C7_11 
ROOT
HETATM    1  O1  UNL     1     -41.327  14.670  50.128  1.00  0.00     0.000 OA
HETATM    2  O2  UNL     1     -39.216  15.837  49.575  1.00  0.00    -0.323 OA
HETATM    3  O3  UNL     1     -40.271  15.558  50.497  1.00  0.00    -0.323 OA
HETATM    4  N1  UNL     1     -41.327  13.449  47.544  1.00  0.00    -0.267 NA
HETATM    5  C1  UNL     1     -40.271  14.948  49.206  1.00  0.00     0.148 A 
HETATM    6  C2  UNL     1     -40.975  14.559  49.389  1.00  0.00     0.125 A 
HETATM    7  C3  UNL     1     -40.975  13.949  48.098  1.00  0.00     0.106 A 
HETATM    8  C4  UNL     1     -41.327  14.059  48.835  1.00  0.00     0.106 A 
HETATM    9  C5  UNL     1     -39.920  14.838  48.467  1.00  0.00     0.125 A 
HETATM   10  C6  UNL     1     -40.271  14.338  47.913  1.00  0.00     0.106 A 
HETATM   11  C7  UNL     1     -39.920  15.448  49.760  1.00  0.00     0.198 A 
ENDROOT
TORSDOF 11
ENDMDL
