MODEL 1
REMARK VINA RESULT:     186.0      0.000      0.000
REMARK  20 active torsions:
REMARK  status: ('A' for Active; 'I' for Inactive)
REMARK    1  A    between atoms: O1_1  and  C5_9 
REMARK    2  A    between atoms: N1_2  and  C5_9 
REMARK    3  A    between atoms: N2_3  and  C9_13 
REMARK    4  A    between atoms: C1_5  and  C6_10 
REMARK    5  A    between atoms: C1_5  and  C7_11 
REMARK    6  A    between atoms: C2_6  and  C5_9 
REMARK    7  A    between atoms: C2_6  and  C8_12 
REMARK    8  A    between atoms: C3_7  and  C4_8 
REMARK    9  A    between atoms: C3_7  and  C6_10 
REMARK   10  A    between atoms: C3_7  and  C10_14 
REMARK   11  A    between atoms: C3_7  and  C11_15 
REMARK   12  A    between atoms: C4_8  and  C7_11 
REMARK   13  A    between atoms: C4_8  and  C9_13 
REMARK   14  A    between atoms: C5_9  and  C7_11 
REMARK   15  A    between atoms: C6_10  and  C8_12 
REMARK   16  A    between atoms: C7_11  and  C12_16 
REMARK   17  A    between atoms: C8_12  and  C9_13 
REMARK   18  A    between atoms: C8_12  and  C11_15 
REMARK   19  A    between atoms: C9_13  and  C11_15 
REMARK   20  A    between atoms: C9_13  and  C10_14 
ROOT
HETATM    1  O1  UNL     1     -39.051  11.416  47.540  1.00  0.00     0.000 OA
HETATM    2  N1  UNL     1     -40.140  12.245  47.950  1.00  0.00     0.000 N 
HETATM    3  N2  UNL     1     -40.767  15.816  49.021  1.00  0.00    -0.015 N 
HETATM    4  N3  UNL     1     -37.214  12.596  47.542  1.00  0.00    -0.183 N 
HETATM    5  C1  UNL     1     -39.909  13.617  48.281  1.00  0.00     0.054 A 
HETATM    6  C2  UNL     1     -40.426  12.979  48.197  1.00  0.00     0.037 A 
HETATM    7  C3  UNL     1     -40.195  14.350  48.527  1.00  0.00     0.093 A 
HETATM    8  C4  UNL     1     -39.106  13.520  48.117  1.00  0.00     0.051 A 
HETATM    9  C5  UNL     1     -38.820  12.788  47.870  1.00  0.00     0.030 A 
HETATM   10  C6  UNL     1     -41.229  13.074  48.361  1.00  0.00     0.036 A 
HETATM   11  C7  UNL     1     -39.337  12.150  47.787  1.00  0.00     0.030 A 
HETATM   12  C8  UNL     1     -40.997  14.445  48.691  1.00  0.00     0.158 A 
HETATM   13  C9  UNL     1     -39.678  14.987  48.610  1.00  0.00     0.176 A 
HETATM   14  C10 UNL     1     -41.284  15.179  48.938  1.00  0.00     0.213 A 
HETATM   15  C11 UNL     1     -39.964  15.721  48.857  1.00  0.00     0.213 A 
HETATM   16  C12 UNL     1     -38.017  12.691  47.706  1.00  0.00     0.106 A 
ENDROOT
TORSDOF 20
ENDMDL
