MODEL 1
REMARK VINA RESULT:     405.4      0.000      0.000
REMARK WARNING: 32 MAX_TORS EXCEEDED!!!
REMARK  42 active torsions:
REMARK  status: ('A' for Active; 'I' for Inactive)
REMARK    1  A    between atoms: S1_1  and  C1_12 
REMARK    2  A    between atoms: S1_1  and  C3_14 
REMARK    3  A    between atoms: F1_2  and  C11_22 
REMARK    4  A    between atoms: F3_4  and  C9_20 
REMARK    5  A    between atoms: F3_4  and  C13_24 
REMARK    6  A    between atoms: F4_5  and  C13_24 
REMARK    7  A    between atoms: F4_5  and  C15_26 
REMARK    8  A    between atoms: O2_7  and  C8_19 
REMARK    9  A    between atoms: O3_8  and  C1_12 
REMARK   10  A    between atoms: O3_8  and  C3_14 
REMARK   11  A    between atoms: O3_8  and  C5_16 
REMARK   12  A    between atoms: O3_8  and  C7_18 
REMARK   13  A    between atoms: O4_9  and  C12_23 
REMARK   14  A    between atoms: N1_10  and  C1_12 
REMARK   15  A    between atoms: N1_10  and  C3_14 
REMARK   16  A    between atoms: C1_12  and  C4_15 
REMARK   17  A    between atoms: C2_13  and  C4_15 
REMARK   18  A    between atoms: C2_13  and  C5_16 
REMARK   19  A    between atoms: C3_14  and  C4_15 
REMARK   20  A    between atoms: C4_15  and  C12_23 
REMARK   21  A    between atoms: C5_16  and  C14_25 
REMARK   22  A    between atoms: C6_17  and  C15_26 
REMARK   23  A    between atoms: C7_18  and  C8_19 
REMARK   24  A    between atoms: C7_18  and  C11_22 
REMARK   25  A    between atoms: C7_18  and  C14_25 
REMARK   26  A    between atoms: C8_19  and  C10_21 
REMARK   27  A    between atoms: C8_19  and  C14_25 
REMARK   28  A    between atoms: C9_20  and  C12_23 
REMARK   29  A    between atoms: C9_20  and  C16_27 
REMARK   30  A    between atoms: C9_20  and  C17_28 
REMARK   31  A    between atoms: C10_21  and  C11_22 
REMARK   32  A    between atoms: C11_22  and  C14_25 
REMARK   33  A    between atoms: C12_23  and  C13_24 
REMARK   34  A    between atoms: C12_23  and  C15_26 
REMARK   35  A    between atoms: C13_24  and  C17_28 
REMARK   36  A    between atoms: C13_24  and  C16_27 
REMARK   37  A    between atoms: C13_24  and  C18_29 
REMARK   38  A    between atoms: C15_26  and  C16_27 
REMARK   39  A    between atoms: C15_26  and  C18_29 
REMARK   40  A    between atoms: C15_26  and  C17_28 
REMARK   41  A    between atoms: C16_27  and  C18_29 
REMARK   42  A    between atoms: C17_28  and  C18_29 
ROOT
HETATM    1  S1  UNL     1     -38.059  11.223  50.364  1.00  0.00    -0.214 SA
HETATM    2  F1  UNL     1     -41.321  10.738  50.492  1.00  0.00    -0.475 F 
HETATM    3  O1  UNL     1     -36.173  11.809  50.300  1.00  0.00     0.000 OA
HETATM    4  O2  UNL     1     -37.938  10.408  50.333  1.00  0.00     0.000 OA
HETATM    5  O3  UNL     1     -38.178  12.039  50.396  1.00  0.00     0.000 OA
HETATM    6  O4  UNL     1     -35.821  13.000  50.323  1.00  0.00     0.000 OA
HETATM    7  N1  UNL     1     -37.147  13.524  50.398  1.00  0.00     0.000 N 
HETATM    8  C1  UNL     1     -36.940  12.112  50.344  1.00  0.00     0.031 A 
HETATM    9  C2  UNL     1     -37.244  11.344  50.332  1.00  0.00     0.036 A 
HETATM   10  C3  UNL     1     -37.705  12.414  50.387  1.00  0.00     0.031 A 
HETATM   11  C4  UNL     1     -36.635  12.878  50.355  1.00  0.00     0.039 A 
HETATM   12  C5  UNL     1     -38.874  11.102  50.396  1.00  0.00     0.082 A 
HETATM   13  C6  UNL     1     -36.844  14.291  50.409  1.00  0.00     0.106 A 
HETATM   14  C7  UNL     1     -39.385  11.748  50.440  1.00  0.00     0.087 A 
HETATM   15  C8  UNL     1     -39.178  10.335  50.385  1.00  0.00     0.087 A 
HETATM   16  C9  UNL     1     -37.356  14.937  50.452  1.00  0.00     0.154 A 
HETATM   17  C10 UNL     1     -40.202  11.626  50.472  1.00  0.00     0.104 A 
HETATM   18  C11 UNL     1     -39.993  10.214  50.417  1.00  0.00     0.104 A 
HETATM   19  C12 UNL     1     -36.028  14.412  50.377  1.00  0.00     0.106 A 
HETATM   20  C13 UNL     1     -37.052  15.705  50.464  1.00  0.00     0.147 A 
HETATM   21  C14 UNL     1     -40.505  10.859  50.460  1.00  0.00     0.104 A 
HETATM   22  C15 UNL     1     -36.236  15.825  50.432  1.00  0.00     0.158 A 
HETATM   23  C16 UNL     1     -35.725  15.180  50.388  1.00  0.00     0.139 A 
ENDROOT
BRANCH  16  24
HETATM   24  F3  UNL     1     -38.210  15.836  50.519  1.00  0.00    -0.392 F 
HETATM   25  C17 UNL     1     -38.711  15.284  50.164  1.00  0.00     0.218 A 
HETATM   26  F2  UNL     1     -39.327  15.835  50.177  1.00  0.00    -0.293 F 
HETATM   27  F4  UNL     1     -39.212  14.733  49.811  1.00  0.00    -0.399 F 
HETATM   28  N2  UNL     1     -39.706  13.576  49.239  1.00  0.00    -0.179 NA
HETATM   29  C18 UNL     1     -38.965  13.779  49.539  1.00  0.00     0.219 A 
ENDBRANCH  16  24
TORSDOF 42
ENDMDL
