MODEL 1
REMARK VINA RESULT:      67.3      0.000      0.000
REMARK  30 active torsions:
REMARK  status: ('A' for Active; 'I' for Inactive)
REMARK    1  A    between atoms: O1_1  and  C1_6 
REMARK    2  A    between atoms: O1_1  and  C2_7 
REMARK    3  A    between atoms: O1_1  and  C7_12 
REMARK    4  A    between atoms: O2_2  and  C1_6 
REMARK    5  A    between atoms: O2_2  and  C3_8 
REMARK    6  A    between atoms: O2_2  and  C8_13 
REMARK    7  A    between atoms: O3_3  and  N2_5 
REMARK    8  A    between atoms: N1_4  and  N2_5 
REMARK    9  A    between atoms: N1_4  and  C1_6 
REMARK   10  A    between atoms: N2_5  and  C10_15 
REMARK   11  A    between atoms: N2_5  and  C1_6 
REMARK   12  A    between atoms: C1_6  and  C5_10 
REMARK   13  A    between atoms: C1_6  and  C6_11 
REMARK   14  A    between atoms: C1_6  and  C10_15 
REMARK   15  A    between atoms: C2_7  and  C5_10 
REMARK   16  A    between atoms: C2_7  and  C6_11 
REMARK   17  A    between atoms: C2_7  and  C8_13 
REMARK   18  A    between atoms: C3_8  and  C4_9 
REMARK   19  A    between atoms: C3_8  and  C5_10 
REMARK   20  A    between atoms: C3_8  and  C6_11 
REMARK   21  A    between atoms: C3_8  and  C7_12 
REMARK   22  A    between atoms: C3_8  and  C9_14 
REMARK   23  A    between atoms: C4_9  and  C7_12 
REMARK   24  A    between atoms: C4_9  and  C8_13 
REMARK   25  A    between atoms: C5_10  and  C6_11 
REMARK   26  A    between atoms: C5_10  and  C7_12 
REMARK   27  A    between atoms: C5_10  and  C10_15 
REMARK   28  A    between atoms: C6_11  and  C8_13 
REMARK   29  A    between atoms: C6_11  and  C10_15 
REMARK   30  A    between atoms: C7_12  and  C9_14 
ROOT
HETATM    1  O1  UNL     1     -41.313  13.626  50.092  1.00  0.00     0.000 OA
HETATM    2  O3  UNL     1     -39.469  15.807  50.199  1.00  0.00     0.000 OA
HETATM    3  N1  UNL     1     -40.390  14.717  50.145  1.00  0.00     0.000 N 
HETATM    4  C5  UNL     1     -40.969  14.290  49.741  1.00  0.00     0.000 A 
HETATM    5  C10 UNL     1     -40.047  15.380  49.794  1.00  0.00     0.000 A 
ENDROOT
BRANCH   1   6
HETATM    6  C1  UNL     1     -41.204  14.525  48.986  1.00  0.00     0.000 A 
HETATM    7  C2  UNL     1     -41.265  13.713  48.854  1.00  0.00     0.000 A 
HETATM    8  C4  UNL     1     -41.263  13.419  48.082  1.00  0.00     0.000 A 
HETATM    9  C7  UNL     1     -41.327  13.194  49.493  1.00  0.00     0.000 A 
HETATM   10  C3  UNL     1     -41.202  14.231  48.216  1.00  0.00     0.000 A 
HETATM   11  C9  UNL     1     -41.323  12.607  47.950  1.00  0.00     0.000 A 
HETATM   12  C8  UNL     1     -41.139  14.751  47.577  1.00  0.00     0.000 A 
BRANCH   7  13
HETATM   13  C6  UNL     1     -41.133  15.293  48.695  1.00  0.00     0.000 A 
HETATM   14  O2  UNL     1     -40.782  15.550  49.397  1.00  0.00     0.000 OA
HETATM   15  N2  UNL     1     -41.328  15.838  48.108  1.00  0.00     0.000 N 
ENDBRANCH   7  13
ENDBRANCH   1   6
TORSDOF 30
ENDMDL
