MODEL 1
REMARK VINA RESULT:     205.9      0.000      0.000
REMARK  20 active torsions:
REMARK  status: ('A' for Active; 'I' for Inactive)
REMARK    1  A    between atoms: O1_1  and  C7_12 
REMARK    2  A    between atoms: O1_1  and  C10_15 
REMARK    3  A    between atoms: N1_2  and  C6_11 
REMARK    4  A    between atoms: N2_3  and  C7_12 
REMARK    5  A    between atoms: N2_3  and  C14_19 
REMARK    6  A    between atoms: N3_4  and  C6_11 
REMARK    7  A    between atoms: N3_4  and  C11_16 
REMARK    8  A    between atoms: N4_5  and  C1_6 
REMARK    9  A    between atoms: N4_5  and  C7_12 
REMARK   10  A    between atoms: N4_5  and  C15_20 
REMARK   11  A    between atoms: C4_9  and  C5_10 
REMARK   12  A    between atoms: C4_9  and  C8_13 
REMARK   13  A    between atoms: C5_10  and  C9_14 
REMARK   14  A    between atoms: C7_12  and  C9_14 
REMARK   15  A    between atoms: C8_13  and  C12_17 
REMARK   16  A    between atoms: C9_14  and  C10_15 
REMARK   17  A    between atoms: C10_15  and  C13_18 
REMARK   18  A    between atoms: C11_16  and  C12_17 
REMARK   19  A    between atoms: C11_16  and  C14_19 
REMARK   20  A    between atoms: C13_18  and  C15_20 
ROOT
HETATM    1  O1  UNL     1     -41.062  12.866  50.527  1.00  0.00     0.000 OA
HETATM    2  N1  UNL     1     -38.868  14.377  50.527  1.00  0.00     0.000 N 
HETATM    3  N2  UNL     1     -39.674  12.708  50.527  1.00  0.00     0.000 N 
HETATM    4  N3  UNL     1     -37.655  13.711  50.528  1.00  0.00     0.000 N 
HETATM    5  N4  UNL     1     -39.786  15.414  50.527  1.00  0.00     0.000 N 
HETATM    6  C1  UNL     1     -38.352  15.023  50.527  1.00  0.00     0.037 A 
HETATM    7  C2  UNL     1     -37.585  15.323  50.527  1.00  0.00    -0.026 A 
HETATM    8  C3  UNL     1     -38.229  15.838  50.527  1.00  0.00    -0.026 A 
HETATM    9  C4  UNL     1     -38.510  13.635  50.527  1.00  0.00     0.007 A 
HETATM   10  C5  UNL     1     -39.671  14.562  50.527  1.00  0.00     0.006 A 
HETATM   11  C6  UNL     1     -38.869  12.891  50.527  1.00  0.00     0.001 A 
HETATM   12  C7  UNL     1     -40.318  14.048  50.527  1.00  0.00     0.001 A 
HETATM   13  C8  UNL     1     -38.397  12.173  50.528  1.00  0.00     0.001 A 
HETATM   14  C9  UNL     1     -40.319  13.224  50.527  1.00  0.00     0.001 A 
HETATM   15  C10 UNL     1     -41.121  14.351  50.527  1.00  0.00     0.001 A 
HETATM   16  C11 UNL     1     -37.540  12.230  50.528  1.00  0.00     0.000 A 
HETATM   17  C12 UNL     1     -37.166  13.004  50.528  1.00  0.00     0.001 A 
HETATM   18  C13 UNL     1     -40.583  15.735  50.527  1.00  0.00     0.001 A 
HETATM   19  C14 UNL     1     -38.764  11.435  50.528  1.00  0.00     0.000 A 
HETATM   20  C15 UNL     1     -41.255  15.199  50.527  1.00  0.00     0.000 A 
ENDROOT
TORSDOF 20
ENDMDL
MODEL 2
REMARK VINA RESULT:     208.1      1.880      2.778
REMARK  20 active torsions:
REMARK  status: ('A' for Active; 'I' for Inactive)
REMARK    1  A    between atoms: O1_1  and  C7_12 
REMARK    2  A    between atoms: O1_1  and  C10_15 
REMARK    3  A    between atoms: N1_2  and  C6_11 
REMARK    4  A    between atoms: N2_3  and  C7_12 
REMARK    5  A    between atoms: N2_3  and  C14_19 
REMARK    6  A    between atoms: N3_4  and  C6_11 
REMARK    7  A    between atoms: N3_4  and  C11_16 
REMARK    8  A    between atoms: N4_5  and  C1_6 
REMARK    9  A    between atoms: N4_5  and  C7_12 
REMARK   10  A    between atoms: N4_5  and  C15_20 
REMARK   11  A    between atoms: C4_9  and  C5_10 
REMARK   12  A    between atoms: C4_9  and  C8_13 
REMARK   13  A    between atoms: C5_10  and  C9_14 
REMARK   14  A    between atoms: C7_12  and  C9_14 
REMARK   15  A    between atoms: C8_13  and  C12_17 
REMARK   16  A    between atoms: C9_14  and  C10_15 
REMARK   17  A    between atoms: C10_15  and  C13_18 
REMARK   18  A    between atoms: C11_16  and  C12_17 
REMARK   19  A    between atoms: C11_16  and  C14_19 
REMARK   20  A    between atoms: C13_18  and  C15_20 
ROOT
HETATM    1  O1  UNL     1     -38.615  12.433  48.345  1.00  0.00     0.000 OA
HETATM    2  N1  UNL     1     -39.979  14.572  49.159  1.00  0.00     0.000 N 
HETATM    3  N2  UNL     1     -38.440  13.540  49.179  1.00  0.00     0.000 N 
HETATM    4  N3  UNL     1     -39.332  15.423  50.039  1.00  0.00     0.000 N 
HETATM    5  N4  UNL     1     -40.965  14.046  48.342  1.00  0.00     0.000 N 
HETATM    6  C1  UNL     1     -40.570  15.139  49.268  1.00  0.00     0.037 A 
HETATM    7  C2  UNL     1     -40.834  15.837  49.618  1.00  0.00    -0.026 A 
HETATM    8  C3  UNL     1     -41.327  15.421  49.105  1.00  0.00    -0.026 A 
HETATM    9  C4  UNL     1     -39.279  14.702  49.575  1.00  0.00     0.007 A 
HETATM   10  C5  UNL     1     -40.168  13.952  48.650  1.00  0.00     0.006 A 
HETATM   11  C6  UNL     1     -38.593  14.242  49.584  1.00  0.00     0.001 A 
HETATM   12  C7  UNL     1     -39.702  13.307  48.430  1.00  0.00     0.001 A 
HETATM   13  C8  UNL     1     -37.914  14.472  50.057  1.00  0.00     0.001 A 
HETATM   14  C9  UNL     1     -38.933  13.123  48.665  1.00  0.00     0.001 A 
HETATM   15  C10 UNL     1     -40.002  12.713  47.887  1.00  0.00     0.001 A 
HETATM   16  C11 UNL     1     -37.949  15.190  50.528  1.00  0.00     0.000 A 
HETATM   17  C12 UNL     1     -38.663  15.669  50.519  1.00  0.00     0.001 A 
HETATM   18  C13 UNL     1     -41.280  13.462  47.797  1.00  0.00     0.001 A 
HETATM   19  C14 UNL     1     -37.233  14.007  50.060  1.00  0.00     0.000 A 
HETATM   20  C15 UNL     1     -40.795  12.790  47.568  1.00  0.00     0.000 A 
ENDROOT
TORSDOF 20
ENDMDL
