MODEL 1
REMARK VINA RESULT:     288.9      0.000      0.000
REMARK  16 active torsions:
REMARK  status: ('A' for Active; 'I' for Inactive)
REMARK    1  A    between atoms: O1_2  and  C7_11 
REMARK    2  A    between atoms: N1_4  and  C3_7 
REMARK    3  A    between atoms: C2_6  and  C6_10 
REMARK    4  A    between atoms: C2_6  and  C7_11 
REMARK    5  A    between atoms: C4_8  and  C6_10 
REMARK    6  A    between atoms: C5_9  and  C6_10 
REMARK    7  A    between atoms: C7_11  and  C9_13 
REMARK    8  A    between atoms: C8_12  and  C12_16 
REMARK    9  A    between atoms: C8_12  and  C13_17 
REMARK   10  A    between atoms: C9_13  and  C10_14 
REMARK   11  A    between atoms: C9_13  and  C13_17 
REMARK   12  A    between atoms: C10_14  and  C11_15 
REMARK   13  A    between atoms: C10_14  and  C12_16 
REMARK   14  A    between atoms: C11_15  and  C13_17 
REMARK   15  A    between atoms: C12_16  and  C13_17 
REMARK   16  A    between atoms: C12_16  and  C14_18 
ROOT
HETATM    1 CL1  UNL     1     -36.626  12.095  48.794  1.00  0.00    -0.252 Cl
HETATM    2  O1  UNL     1     -39.196  13.314  48.509  1.00  0.00     0.000 OA
HETATM    3  O2  UNL     1     -37.649  13.357  49.083  1.00  0.00     0.000 OA
HETATM    4  N1  UNL     1     -40.219  14.576  48.797  1.00  0.00     0.000 N 
HETATM    5  C1  UNL     1     -40.730  15.207  48.941  1.00  0.00     0.000 A 
HETATM    6  C2  UNL     1     -39.446  14.598  49.084  1.00  0.00     0.001 A 
HETATM    7  C3  UNL     1     -38.934  13.966  48.940  1.00  0.00     0.001 A 
HETATM    8  C4  UNL     1     -41.242  15.838  49.086  1.00  0.00     0.000 A 
HETATM    9  C5  UNL     1     -41.327  14.818  48.527  1.00  0.00     0.000 A 
HETATM   10  C6  UNL     1     -40.133  15.597  49.356  1.00  0.00     0.000 A 
HETATM   11  C7  UNL     1     -38.161  13.988  49.227  1.00  0.00     0.013 A 
HETATM   12  C8  UNL     1     -36.876  13.379  49.370  1.00  0.00     0.040 A 
HETATM   13  C9  UNL     1     -36.614  14.031  49.801  1.00  0.00     0.030 A 
HETATM   14  C10 UNL     1     -36.365  12.748  49.226  1.00  0.00     0.047 A 
HETATM   15  C11 UNL     1     -35.841  14.053  50.087  1.00  0.00     0.032 A 
HETATM   16  C12 UNL     1     -35.330  13.422  49.943  1.00  0.00     0.032 A 
HETATM   17  C13 UNL     1     -35.592  12.770  49.512  1.00  0.00     0.047 A 
HETATM   18  C14 UNL     1     -35.580  14.706  50.519  1.00  0.00     0.009 A 
ENDROOT
TORSDOF 16
ENDMDL
