MODEL 1
REMARK VINA RESULT:     542.9      0.000      0.000
REMARK WARNING: 32 MAX_TORS EXCEEDED!!!
REMARK  40 active torsions:
REMARK  status: ('A' for Active; 'I' for Inactive)
REMARK    1  A    between atoms: O1_1  and  C4_11 
REMARK    2  A    between atoms: N1_3  and  C4_11 
REMARK    3  A    between atoms: N2_4  and  C9_16 
REMARK    4  A    between atoms: N3_5  and  N4_6 
REMARK    5  A    between atoms: N3_5  and  C4_11 
REMARK    6  A    between atoms: N4_6  and  C20_27 
REMARK    7  A    between atoms: C1_8  and  C5_12 
REMARK    8  A    between atoms: C1_8  and  C9_16 
REMARK    9  A    between atoms: C2_9  and  C8_15 
REMARK   10  A    between atoms: C3_10  and  C6_13 
REMARK   11  A    between atoms: C3_10  and  C7_14 
REMARK   12  A    between atoms: C3_10  and  C11_18 
REMARK   13  A    between atoms: C3_10  and  C13_20 
REMARK   14  A    between atoms: C4_11  and  C6_13 
REMARK   15  A    between atoms: C4_11  and  C11_18 
REMARK   16  A    between atoms: C4_11  and  C18_25 
REMARK   17  A    between atoms: C5_12  and  C7_14 
REMARK   18  A    between atoms: C5_12  and  C8_15 
REMARK   19  A    between atoms: C5_12  and  C10_17 
REMARK   20  A    between atoms: C5_12  and  C14_21 
REMARK   21  A    between atoms: C6_13  and  C10_17 
REMARK   22  A    between atoms: C6_13  and  C11_18 
REMARK   23  A    between atoms: C6_13  and  C17_24 
REMARK   24  A    between atoms: C6_13  and  C18_25 
REMARK   25  A    between atoms: C7_14  and  C9_16 
REMARK   26  A    between atoms: C7_14  and  C12_19 
REMARK   27  A    between atoms: C8_15  and  C9_16 
REMARK   28  A    between atoms: C8_15  and  C13_20 
REMARK   29  A    between atoms: C8_15  and  C14_21 
REMARK   30  A    between atoms: C9_16  and  C14_21 
REMARK   31  A    between atoms: C9_16  and  C12_19 
REMARK   32  A    between atoms: C11_18  and  C19_26 
REMARK   33  A    between atoms: C12_19  and  C16_23 
REMARK   34  A    between atoms: C13_20  and  C15_22 
REMARK   35  A    between atoms: C15_22  and  C16_23 
REMARK   36  A    between atoms: C18_25  and  C19_26 
REMARK   37  A    between atoms: C18_25  and  C22_29 
REMARK   38  A    between atoms: C19_26  and  C20_27 
REMARK   39  A    between atoms: C20_27  and  C25_32 
REMARK   40  A    between atoms: C24_31  and  C25_32 
ROOT
HETATM    1  O1  UNL     1     -37.516  14.607  50.513  1.00  0.00     0.000 OA
HETATM    2  O2  UNL     1     -38.609  15.403  50.054  1.00  0.00     0.000 OA
HETATM    3  N3  UNL     1     -38.555  14.012  49.735  1.00  0.00     0.000 N 
HETATM    4  N4  UNL     1     -39.650  14.808  49.276  1.00  0.00     0.000 N 
HETATM    5  N5  UNL     1     -40.634  12.820  48.178  1.00  0.00    -0.005 N 
HETATM    6  C11 UNL     1     -37.844  13.945  50.147  1.00  0.00     0.007 A 
HETATM    7  C18 UNL     1     -38.883  13.350  49.369  1.00  0.00     0.053 A 
HETATM    8  C19 UNL     1     -38.938  14.740  49.688  1.00  0.00     0.035 A 
HETATM    9  C20 UNL     1     -39.595  13.416  48.956  1.00  0.00     0.196 A 
HETATM   10  C22 UNL     1     -39.923  12.754  48.591  1.00  0.00     0.221 A 
HETATM   11  C23 UNL     1     -40.032  15.537  49.230  1.00  0.00     0.028 A 
HETATM   12  C24 UNL     1     -40.963  12.158  47.812  1.00  0.00     0.247 A 
HETATM   13  C25 UNL     1     -41.017  13.550  48.131  1.00  0.00     0.244 A 
HETATM   14  C26 UNL     1     -40.743  15.604  48.817  1.00  0.00    -0.031 A 
ENDROOT
BRANCH   1  15
HETATM   15  C4  UNL     1     -37.461  13.215  50.194  1.00  0.00     0.008 A 
HETATM   16  C3  UNL     1     -38.314  13.160  50.276  1.00  0.00     0.013 A 
HETATM   17  C1  UNL     1     -38.703  12.404  50.149  1.00  0.00     0.048 A 
HETATM   18  C2  UNL     1     -38.268  11.731  49.949  1.00  0.00     0.049 A 
HETATM   19  C7  UNL     1     -39.523  12.356  50.229  1.00  0.00     0.064 A 
HETATM   20  N1  UNL     1     -37.415  11.768  49.863  1.00  0.00     0.000 N 
HETATM   21  C8  UNL     1     -39.908  11.636  50.110  1.00  0.00     0.129 A 
HETATM   22  C13 UNL     1     -39.964  13.063  50.438  1.00  0.00     0.031 A 
HETATM   23  C16 UNL     1     -40.819  13.019  50.523  1.00  0.00     0.035 A 
HETATM   24  C6  UNL     1     -37.007  12.515  49.986  1.00  0.00     0.013 A 
HETATM   25  C10 UNL     1     -36.987  11.091  49.663  1.00  0.00     0.023 A 
HETATM   26  C5  UNL     1     -38.653  11.012  49.830  1.00  0.00     0.073 A 
HETATM   27  C17 UNL     1     -36.167  11.130  49.581  1.00  0.00     0.021 A 
HETATM   28  C21 UNL     1     -35.740  10.452  49.381  1.00  0.00    -0.052 A 
HETATM   29  C9  UNL     1     -39.473  10.964  49.911  1.00  0.00     0.153 A 
HETATM   30  C12 UNL     1     -40.761  11.573  50.191  1.00  0.00     0.165 A 
HETATM   31  N2  UNL     1     -40.755  10.622  49.976  1.00  0.00    -0.023 N 
HETATM   32  C15 UNL     1     -41.220  12.270  50.398  1.00  0.00     0.051 A 
HETATM   33  C14 UNL     1     -39.999  10.340  49.828  1.00  0.00     0.204 A 
ENDBRANCH   1  15
TORSDOF 40
ENDMDL
