MODEL 1
REMARK VINA RESULT:     150.2      0.000      0.000
REMARK  19 active torsions:
REMARK  status: ('A' for Active; 'I' for Inactive)
REMARK    1  A    between atoms: I1_1  and  N1_7 
REMARK    2  A    between atoms: I1_1  and  N2_8 
REMARK    3  A    between atoms: O1_2  and  C1_9 
REMARK    4  A    between atoms: O1_2  and  C5_13 
REMARK    5  A    between atoms: O2_3  and  C4_12 
REMARK    6  A    between atoms: O4_5  and  C3_11 
REMARK    7  A    between atoms: N1_7  and  N2_8 
REMARK    8  A    between atoms: N1_7  and  C8_16 
REMARK    9  A    between atoms: N2_8  and  C8_16 
REMARK   10  A    between atoms: C1_9  and  C4_12 
REMARK   11  A    between atoms: C1_9  and  C2_10 
REMARK   12  A    between atoms: C1_9  and  C5_13 
REMARK   13  A    between atoms: C2_10  and  C6_14 
REMARK   14  A    between atoms: C3_11  and  C4_12 
REMARK   15  A    between atoms: C6_14  and  C7_15 
REMARK   16  A    between atoms: C6_14  and  C8_16 
REMARK   17  A    between atoms: C6_14  and  C9_17 
REMARK   18  A    between atoms: C7_15  and  C9_17 
REMARK   19  A    between atoms: C8_16  and  C9_17 
ROOT
HETATM    1  I1  UNL     1     -37.043  12.593  50.526  1.00  0.00    -0.170 I 
HETATM    2  O1  UNL     1     -39.761  13.992  50.527  1.00  0.00     0.000 OA
HETATM    3  O2  UNL     1     -40.830  15.838  50.527  1.00  0.00     0.000 OA
HETATM    4  O3  UNL     1     -41.325  13.269  50.527  1.00  0.00    -0.359 OA
HETATM    5  O4  UNL     1     -38.019  15.745  50.527  1.00  0.00     0.000 OA
HETATM    6  O5  UNL     1     -35.922  13.804  50.526  1.00  0.00     0.000 OA
HETATM    7  N1  UNL     1     -38.335  14.352  50.527  1.00  0.00     0.000 N 
HETATM    8  N2  UNL     1     -36.970  14.774  50.527  1.00  0.00     0.000 N 
HETATM    9  C1  UNL     1     -40.286  15.217  50.527  1.00  0.00     0.055 A 
HETATM   10  C2  UNL     1     -39.140  14.535  50.527  1.00  0.00     0.037 A 
HETATM   11  C3  UNL     1     -39.465  15.292  50.527  1.00  0.00     0.033 A 
HETATM   12  C4  UNL     1     -40.469  14.414  50.527  1.00  0.00     0.100 A 
HETATM   13  C5  UNL     1     -41.227  14.089  50.527  1.00  0.00     0.140 A 
HETATM   14  C6  UNL     1     -37.774  14.957  50.527  1.00  0.00     0.028 A 
HETATM   15  C7  UNL     1     -38.091  13.564  50.526  1.00  0.00     0.042 A 
HETATM   16  C8  UNL     1     -37.286  13.381  50.526  1.00  0.00     0.047 A 
HETATM   17  C9  UNL     1     -36.726  13.986  50.526  1.00  0.00     0.047 A 
ENDROOT
TORSDOF 19
ENDMDL
MODEL 2
REMARK VINA RESULT:     151.3      1.513      3.308
REMARK  19 active torsions:
REMARK  status: ('A' for Active; 'I' for Inactive)
REMARK    1  A    between atoms: I1_1  and  N1_7 
REMARK    2  A    between atoms: I1_1  and  N2_8 
REMARK    3  A    between atoms: O1_2  and  C1_9 
REMARK    4  A    between atoms: O1_2  and  C5_13 
REMARK    5  A    between atoms: O2_3  and  C4_12 
REMARK    6  A    between atoms: O4_5  and  C3_11 
REMARK    7  A    between atoms: N1_7  and  N2_8 
REMARK    8  A    between atoms: N1_7  and  C8_16 
REMARK    9  A    between atoms: N2_8  and  C8_16 
REMARK   10  A    between atoms: C1_9  and  C4_12 
REMARK   11  A    between atoms: C1_9  and  C2_10 
REMARK   12  A    between atoms: C1_9  and  C5_13 
REMARK   13  A    between atoms: C2_10  and  C6_14 
REMARK   14  A    between atoms: C3_11  and  C4_12 
REMARK   15  A    between atoms: C6_14  and  C7_15 
REMARK   16  A    between atoms: C6_14  and  C8_16 
REMARK   17  A    between atoms: C6_14  and  C9_17 
REMARK   18  A    between atoms: C7_15  and  C9_17 
REMARK   19  A    between atoms: C8_16  and  C9_17 
ROOT
HETATM    1  I1  UNL     1     -41.144  14.187  49.980  1.00  0.00    -0.170 I 
HETATM    2  O1  UNL     1     -38.224  13.359  50.339  1.00  0.00     0.000 OA
HETATM    3  O2  UNL     1     -36.190  13.980  50.521  1.00  0.00     0.000 OA
HETATM    4  O3  UNL     1     -37.584  11.766  50.497  1.00  0.00    -0.359 OA
HETATM    5  O4  UNL     1     -38.287  15.826  50.193  1.00  0.00     0.000 OA
HETATM    6  O5  UNL     1     -41.129  15.835  49.889  1.00  0.00     0.000 OA
HETATM    7  N1  UNL     1     -39.009  14.592  50.186  1.00  0.00     0.000 N 
HETATM    8  N2  UNL     1     -39.709  15.830  50.041  1.00  0.00     0.000 N 
HETATM    9  C1  UNL     1     -37.007  13.897  50.439  1.00  0.00     0.055 A 
HETATM   10  C2  UNL     1     -38.302  14.178  50.284  1.00  0.00     0.037 A 
HETATM   11  C3  UNL     1     -37.550  14.511  50.346  1.00  0.00     0.033 A 
HETATM   12  C4  UNL     1     -37.423  13.186  50.434  1.00  0.00     0.100 A 
HETATM   13  C5  UNL     1     -37.096  12.432  50.512  1.00  0.00     0.140 A 
HETATM   14  C6  UNL     1     -39.002  15.416  50.140  1.00  0.00     0.028 A 
HETATM   15  C7  UNL     1     -39.723  14.183  50.132  1.00  0.00     0.042 A 
HETATM   16  C8  UNL     1     -40.430  14.598  50.034  1.00  0.00     0.047 A 
HETATM   17  C9  UNL     1     -40.422  15.421  49.988  1.00  0.00     0.047 A 
ENDROOT
TORSDOF 19
ENDMDL
