MODEL 1
REMARK VINA RESULT:     267.1      0.000      0.000
REMARK  23 active torsions:
REMARK  status: ('A' for Active; 'I' for Inactive)
REMARK    1  A    between atoms: CL1_1  and  C12_16 
REMARK    2  A    between atoms: N3_4  and  C10_14 
REMARK    3  A    between atoms: N3_4  and  C16_20 
REMARK    4  A    between atoms: C1_5  and  C5_9 
REMARK    5  A    between atoms: C1_5  and  C7_11 
REMARK    6  A    between atoms: C1_5  and  C8_12 
REMARK    7  A    between atoms: C1_5  and  C10_14 
REMARK    8  A    between atoms: C2_6  and  C4_8 
REMARK    9  A    between atoms: C2_6  and  C10_14 
REMARK   10  A    between atoms: C3_7  and  C4_8 
REMARK   11  A    between atoms: C4_8  and  C16_20 
REMARK   12  A    between atoms: C5_9  and  C14_18 
REMARK   13  A    between atoms: C6_10  and  C7_11 
REMARK   14  A    between atoms: C8_12  and  C9_13 
REMARK   15  A    between atoms: C8_12  and  C12_16 
REMARK   16  A    between atoms: C8_12  and  C14_18 
REMARK   17  A    between atoms: C9_13  and  C11_15 
REMARK   18  A    between atoms: C9_13  and  C14_18 
REMARK   19  A    between atoms: C10_14  and  C15_19 
REMARK   20  A    between atoms: C11_15  and  C12_16 
REMARK   21  A    between atoms: C12_16  and  C14_18 
REMARK   22  A    between atoms: C13_17  and  C15_19 
REMARK   23  A    between atoms: C15_19  and  C16_20 
ROOT
HETATM    1 CL1  UNL     1     -36.186  15.591  50.445  1.00  0.00    -0.250 Cl
HETATM    2  N1  UNL     1     -39.275  13.422  50.224  1.00  0.00     0.000 N 
HETATM    3  N2  UNL     1     -40.501  15.202  49.918  1.00  0.00    -0.011 N 
HETATM    4  N3  UNL     1     -39.632  12.041  50.292  1.00  0.00     0.000 N 
HETATM    5  C1  UNL     1     -39.492  14.213  50.131  1.00  0.00     0.142 A 
HETATM    6  C2  UNL     1     -40.284  14.411  50.012  1.00  0.00     0.194 A 
HETATM    7  C3  UNL     1     -38.483  13.224  50.343  1.00  0.00     0.036 A 
HETATM    8  C4  UNL     1     -39.849  12.831  50.199  1.00  0.00     0.046 A 
HETATM    9  C5  UNL     1     -37.909  13.816  50.369  1.00  0.00     0.052 A 
HETATM   10  C6  UNL     1     -41.294  15.400  49.799  1.00  0.00     0.245 A 
HETATM   11  C7  UNL     1     -39.927  15.793  49.944  1.00  0.00     0.237 A 
HETATM   12  C8  UNL     1     -38.126  14.606  50.275  1.00  0.00     0.052 A 
HETATM   13  C9  UNL     1     -37.117  13.617  50.488  1.00  0.00     0.037 A 
HETATM   14  C10 UNL     1     -40.640  13.029  50.080  1.00  0.00     0.047 A 
HETATM   15  C11 UNL     1     -37.552  15.197  50.301  1.00  0.00     0.051 A 
HETATM   16  C12 UNL     1     -36.542  14.209  50.513  1.00  0.00     0.051 A 
HETATM   17  C13 UNL     1     -41.215  12.438  50.054  1.00  0.00     0.007 A 
HETATM   18  C14 UNL     1     -36.760  15.000  50.420  1.00  0.00     0.051 A 
HETATM   19  C15 UNL     1     -40.206  11.449  50.267  1.00  0.00     0.007 A 
HETATM   20  C16 UNL     1     -40.998  11.647  50.148  1.00  0.00     0.007 A 
ENDROOT
TORSDOF 23
ENDMDL
