MODEL 1
REMARK VINA RESULT:     320.7      0.000      0.000
REMARK WARNING: 32 MAX_TORS EXCEEDED!!!
REMARK  39 active torsions:
REMARK  status: ('A' for Active; 'I' for Inactive)
REMARK    1  A    between atoms: O1_1  and  C6_9 
REMARK    2  A    between atoms: O1_1  and  C15_18 
REMARK    3  A    between atoms: O1_1  and  C16_19 
REMARK    4  A    between atoms: O2_2  and  C14_17 
REMARK    5  A    between atoms: O3_3  and  C19_22 
REMARK    6  A    between atoms: C1_4  and  C7_10 
REMARK    7  A    between atoms: C1_4  and  C11_14 
REMARK    8  A    between atoms: C2_5  and  C4_7 
REMARK    9  A    between atoms: C2_5  and  C7_10 
REMARK   10  A    between atoms: C2_5  and  C17_20 
REMARK   11  A    between atoms: C3_6  and  C6_9 
REMARK   12  A    between atoms: C3_6  and  C7_10 
REMARK   13  A    between atoms: C3_6  and  C9_12 
REMARK   14  A    between atoms: C3_6  and  C16_19 
REMARK   15  A    between atoms: C4_7  and  C6_9 
REMARK   16  A    between atoms: C4_7  and  C10_13 
REMARK   17  A    between atoms: C5_8  and  C7_10 
REMARK   18  A    between atoms: C5_8  and  C12_15 
REMARK   19  A    between atoms: C6_9  and  C7_10 
REMARK   20  A    between atoms: C6_9  and  C8_11 
REMARK   21  A    between atoms: C6_9  and  C14_17 
REMARK   22  A    between atoms: C7_10  and  C14_17 
REMARK   23  A    between atoms: C7_10  and  C16_19 
REMARK   24  A    between atoms: C8_11  and  C9_12 
REMARK   25  A    between atoms: C8_11  and  C14_17 
REMARK   26  A    between atoms: C8_11  and  C22_25 
REMARK   27  A    between atoms: C9_12  and  C11_14 
REMARK   28  A    between atoms: C10_13  and  C13_16 
REMARK   29  A    between atoms: C11_14  and  C17_20 
REMARK   30  A    between atoms: C12_15  and  C13_16 
REMARK   31  A    between atoms: C12_15  and  C19_22 
REMARK   32  A    between atoms: C13_16  and  C15_18 
REMARK   33  A    between atoms: C13_16  and  C20_23 
REMARK   34  A    between atoms: C13_16  and  C21_24 
REMARK   35  A    between atoms: C14_17  and  C17_20 
REMARK   36  A    between atoms: C15_18  and  C16_19 
REMARK   37  A    between atoms: C15_18  and  C21_24 
REMARK   38  A    between atoms: C18_21  and  C19_22 
REMARK   39  A    between atoms: C19_22  and  C21_24 
ROOT
HETATM    1  O1  UNL     1     -39.349  12.220  50.527  1.00  0.00     0.000 OA
HETATM    2  O2  UNL     1     -36.940  10.597  50.527  1.00  0.00     0.000 OA
HETATM    3  O3  UNL     1     -41.182  15.468  50.523  1.00  0.00     0.000 OA
HETATM    4  C1  UNL     1     -37.043  13.116  50.522  1.00  0.00     0.000 A 
HETATM    5  C2  UNL     1     -37.169  12.301  50.524  1.00  0.00     0.000 A 
HETATM    6  C3  UNL     1     -37.686  13.633  50.522  1.00  0.00     0.000 A 
HETATM    7  C4  UNL     1     -38.455  13.334  50.524  1.00  0.00     0.000 A 
HETATM    8  C5  UNL     1     -39.133  13.862  50.524  1.00  0.00     0.000 A 
HETATM    9  C6  UNL     1     -37.937  12.003  50.526  1.00  0.00     0.000 A 
HETATM   10  C7  UNL     1     -38.581  12.519  50.526  1.00  0.00     0.000 A 
HETATM   11  C8  UNL     1     -36.435  11.934  50.524  1.00  0.00     0.000 A 
HETATM   12  C9  UNL     1     -36.233  13.246  50.521  1.00  0.00     0.000 A 
HETATM   13  C10 UNL     1     -37.542  14.480  50.520  1.00  0.00     0.000 A 
HETATM   14  C11 UNL     1     -35.859  12.517  50.522  1.00  0.00     0.000 A 
HETATM   15  C12 UNL     1     -38.208  15.023  50.520  1.00  0.00     0.000 A 
HETATM   16  C13 UNL     1     -39.009  14.713  50.522  1.00  0.00     0.000 A 
HETATM   17  C14 UNL     1     -37.294  11.486  50.526  1.00  0.00     0.000 C 
HETATM   18  C15 UNL     1     -39.960  13.519  50.526  1.00  0.00     0.000 A 
HETATM   19  C16 UNL     1     -39.253  13.045  50.526  1.00  0.00     0.000 A 
HETATM   20  C17 UNL     1     -36.302  11.120  50.525  1.00  0.00     0.000 A 
HETATM   21  C18 UNL     1     -40.666  14.069  50.525  1.00  0.00     0.000 A 
HETATM   22  C19 UNL     1     -39.703  15.278  50.522  1.00  0.00     0.000 A 
HETATM   23  C20 UNL     1     -38.079  15.838  50.518  1.00  0.00     0.000 A 
HETATM   24  C21 UNL     1     -40.537  14.954  50.524  1.00  0.00     0.000 A 
HETATM   25  C22 UNL     1     -35.529  10.829  50.525  1.00  0.00     0.000 A 
ENDROOT
TORSDOF 39
ENDMDL
