MODEL 1
REMARK VINA RESULT:     309.0      0.000      0.000
REMARK  32 active torsions:
REMARK  status: ('A' for Active; 'I' for Inactive)
REMARK    1  A    between atoms: O1_1  and  C15_17 
REMARK    2  A    between atoms: O2_2  and  C16_18 
REMARK    3  A    between atoms: C1_3  and  C10_12 
REMARK    4  A    between atoms: C2_4  and  C9_11 
REMARK    5  A    between atoms: C3_5  and  C5_7 
REMARK    6  A    between atoms: C3_5  and  C6_8 
REMARK    7  A    between atoms: C3_5  and  C10_12 
REMARK    8  A    between atoms: C3_5  and  C11_13 
REMARK    9  A    between atoms: C4_6  and  C5_7 
REMARK   10  A    between atoms: C4_6  and  C6_8 
REMARK   11  A    between atoms: C4_6  and  C9_11 
REMARK   12  A    between atoms: C4_6  and  C12_14 
REMARK   13  A    between atoms: C5_7  and  C7_9 
REMARK   14  A    between atoms: C5_7  and  C17_19 
REMARK   15  A    between atoms: C6_8  and  C8_10 
REMARK   16  A    between atoms: C6_8  and  C18_20 
REMARK   17  A    between atoms: C7_9  and  C11_13 
REMARK   18  A    between atoms: C8_10  and  C12_14 
REMARK   19  A    between atoms: C9_11  and  C11_13 
REMARK   20  A    between atoms: C9_11  and  C15_17 
REMARK   21  A    between atoms: C9_11  and  C17_19 
REMARK   22  A    between atoms: C10_12  and  C12_14 
REMARK   23  A    between atoms: C10_12  and  C16_18 
REMARK   24  A    between atoms: C10_12  and  C18_20 
REMARK   25  A    between atoms: C11_13  and  C13_15 
REMARK   26  A    between atoms: C11_13  and  C17_19 
REMARK   27  A    between atoms: C12_14  and  C14_16 
REMARK   28  A    between atoms: C12_14  and  C18_20 
REMARK   29  A    between atoms: C13_15  and  C15_17 
REMARK   30  A    between atoms: C14_16  and  C16_18 
REMARK   31  A    between atoms: C15_17  and  C17_19 
REMARK   32  A    between atoms: C16_18  and  C18_20 
ROOT
HETATM    1  O1  UNL     1     -41.105  15.697  48.723  1.00  0.00     0.000 OA
HETATM    2  O2  UNL     1     -37.037  10.223  50.505  1.00  0.00     0.000 OA
HETATM    3  C1  UNL     1     -39.004  13.353  49.717  1.00  0.00     0.000 A 
HETATM    4  C2  UNL     1     -39.137  12.566  49.511  1.00  0.00     0.000 A 
HETATM    5  C3  UNL     1     -38.346  13.556  50.172  1.00  0.00     0.000 A 
HETATM    6  C4  UNL     1     -39.795  12.365  49.056  1.00  0.00     0.000 A 
HETATM    7  C5  UNL     1     -39.529  13.939  49.469  1.00  0.00     0.000 A 
HETATM    8  C6  UNL     1     -38.612  11.981  49.759  1.00  0.00     0.000 A 
HETATM    9  C7  UNL     1     -38.213  14.343  50.378  1.00  0.00     0.000 A 
HETATM   10  C8  UNL     1     -39.928  11.577  48.850  1.00  0.00     0.000 A 
HETATM   11  C9  UNL     1     -40.187  13.738  49.014  1.00  0.00     0.000 A 
HETATM   12  C10 UNL     1     -37.954  12.182  50.214  1.00  0.00     0.000 A 
HETATM   13  C11 UNL     1     -39.396  14.728  49.675  1.00  0.00     0.000 A 
HETATM   14  C12 UNL     1     -38.745  11.193  49.553  1.00  0.00     0.000 A 
HETATM   15  C13 UNL     1     -40.713  14.324  48.765  1.00  0.00     0.000 A 
HETATM   16  C14 UNL     1     -37.429  11.596  50.462  1.00  0.00     0.000 A 
HETATM   17  C15 UNL     1     -39.921  15.313  49.427  1.00  0.00     0.000 A 
HETATM   18  C16 UNL     1     -38.220  10.607  49.802  1.00  0.00     0.000 A 
HETATM   19  C17 UNL     1     -40.579  15.111  48.972  1.00  0.00     0.000 A 
HETATM   20  C18 UNL     1     -37.562  10.809  50.256  1.00  0.00     0.000 A 
ENDROOT
TORSDOF 32
ENDMDL
