MODEL 1
REMARK VINA RESULT:     275.7      0.000      0.000
REMARK WARNING: 32 MAX_TORS EXCEEDED!!!
REMARK  53 active torsions:
REMARK  status: ('A' for Active; 'I' for Inactive)
REMARK    1  A    between atoms: CL1_1  and  C3_6 
REMARK    2  A    between atoms: CL1_1  and  C9_12 
REMARK    3  A    between atoms: CL1_1  and  C18_21 
REMARK    4  A    between atoms: CL1_1  and  C20_23 
REMARK    5  A    between atoms: CL1_1  and  C21_24 
REMARK    6  A    between atoms: N1_2  and  C7_10 
REMARK    7  A    between atoms: N1_2  and  C8_11 
REMARK    8  A    between atoms: N1_2  and  C13_16 
REMARK    9  A    between atoms: N2_3  and  C11_14 
REMARK   10  A    between atoms: C1_4  and  C5_8 
REMARK   11  A    between atoms: C2_5  and  C4_7 
REMARK   12  A    between atoms: C2_5  and  C9_12 
REMARK   13  A    between atoms: C2_5  and  C10_13 
REMARK   14  A    between atoms: C2_5  and  C14_17 
REMARK   15  A    between atoms: C2_5  and  C20_23 
REMARK   16  A    between atoms: C3_6  and  C4_7 
REMARK   17  A    between atoms: C3_6  and  C5_8 
REMARK   18  A    between atoms: C3_6  and  C11_14 
REMARK   19  A    between atoms: C3_6  and  C21_24 
REMARK   20  A    between atoms: C4_7  and  C6_9 
REMARK   21  A    between atoms: C4_7  and  C12_15 
REMARK   22  A    between atoms: C4_7  and  C22_25 
REMARK   23  A    between atoms: C5_8  and  C6_9 
REMARK   24  A    between atoms: C5_8  and  C9_12 
REMARK   25  A    between atoms: C5_8  and  C15_18 
REMARK   26  A    between atoms: C5_8  and  C18_21 
REMARK   27  A    between atoms: C6_9  and  C10_13 
REMARK   28  A    between atoms: C6_9  and  C14_17 
REMARK   29  A    between atoms: C6_9  and  C19_22 
REMARK   30  A    between atoms: C6_9  and  C20_23 
REMARK   31  A    between atoms: C7_10  and  C9_12 
REMARK   32  A    between atoms: C7_10  and  C11_14 
REMARK   33  A    between atoms: C7_10  and  C13_16 
REMARK   34  A    between atoms: C7_10  and  C18_21 
REMARK   35  A    between atoms: C8_11  and  C10_13 
REMARK   36  A    between atoms: C8_11  and  C12_15 
REMARK   37  A    between atoms: C8_11  and  C19_22 
REMARK   38  A    between atoms: C9_12  and  C14_17 
REMARK   39  A    between atoms: C9_12  and  C16_19 
REMARK   40  A    between atoms: C9_12  and  C21_24 
REMARK   41  A    between atoms: C10_13  and  C15_18 
REMARK   42  A    between atoms: C10_13  and  C17_20 
REMARK   43  A    between atoms: C10_13  and  C22_25 
REMARK   44  A    between atoms: C11_14  and  C13_16 
REMARK   45  A    between atoms: C11_14  and  C12_15 
REMARK   46  A    between atoms: C11_14  and  C16_19 
REMARK   47  A    between atoms: C12_15  and  C17_20 
REMARK   48  A    between atoms: C14_17  and  C15_18 
REMARK   49  A    between atoms: C15_18  and  C20_23 
REMARK   50  A    between atoms: C16_19  and  C18_21 
REMARK   51  A    between atoms: C17_20  and  C19_22 
REMARK   52  A    between atoms: C18_21  and  C21_24 
REMARK   53  A    between atoms: C19_22  and  C22_25 
ROOT
HETATM    1 CL1  UNL     1     -37.124  13.566  50.527  1.00  0.00    -0.318 Cl
HETATM    2  N1  UNL     1     -39.792  14.591  50.527  1.00  0.00     0.000 N 
HETATM    3  N2  UNL     1     -40.912  15.319  50.527  1.00  0.00     0.127 N 
HETATM    4  C1  UNL     1     -39.273  13.950  50.527  1.00  0.00     0.058 A 
HETATM    5  C2  UNL     1     -38.754  13.308  50.527  1.00  0.00     0.019 A 
HETATM    6  C3  UNL     1     -38.631  14.469  50.527  1.00  0.00     0.039 A 
HETATM    7  C4  UNL     1     -39.914  13.431  50.527  1.00  0.00     0.036 A 
HETATM    8  C5  UNL     1     -37.940  13.437  50.527  1.00  0.00     0.021 A 
HETATM    9  C6  UNL     1     -39.051  12.538  50.527  1.00  0.00     0.027 A 
HETATM   10  C7  UNL     1     -38.761  15.284  50.527  1.00  0.00     0.074 A 
HETATM   11  C8  UNL     1     -40.685  13.727  50.527  1.00  0.00     0.033 A 
HETATM   12  C9  UNL     1     -37.862  14.173  50.527  1.00  0.00     0.026 A 
HETATM   13  C10 UNL     1     -39.786  12.616  50.527  1.00  0.00     0.020 A 
HETATM   14  C11 UNL     1     -39.578  15.388  50.527  1.00  0.00     0.188 A 
HETATM   15  C12 UNL     1     -40.616  14.548  50.527  1.00  0.00     0.179 A 
HETATM   16  C13 UNL     1     -40.270  15.838  50.527  1.00  0.00     0.245 A 
HETATM   17  C14 UNL     1     -37.421  12.796  50.527  1.00  0.00     0.020 A 
HETATM   18  C15 UNL     1     -38.532  11.897  50.527  1.00  0.00     0.028 A 
HETATM   19  C16 UNL     1     -38.119  15.803  50.527  1.00  0.00     0.055 A 
HETATM   20  C17 UNL     1     -41.327  13.208  50.527  1.00  0.00     0.030 A 
HETATM   21  C18 UNL     1     -37.220  14.692  50.527  1.00  0.00     0.026 A 
HETATM   22  C19 UNL     1     -40.428  12.097  50.527  1.00  0.00     0.011 A 
HETATM   23  C20 UNL     1     -37.716  12.025  50.527  1.00  0.00     0.020 A 
HETATM   24  C21 UNL     1     -37.349  15.506  50.527  1.00  0.00     0.027 A 
HETATM   25  C22 UNL     1     -41.197  12.393  50.527  1.00  0.00     0.008 A 
ENDROOT
TORSDOF 53
ENDMDL
