MODEL 1
REMARK VINA RESULT:     185.9      0.000      0.000
REMARK  26 active torsions:
REMARK  status: ('A' for Active; 'I' for Inactive)
REMARK    1  A    between atoms: S1_1  and  C2_9 
REMARK    2  A    between atoms: S1_1  and  C3_10 
REMARK    3  A    between atoms: S1_1  and  C7_14 
REMARK    4  A    between atoms: O2_3  and  C5_12 
REMARK    5  A    between atoms: O3_4  and  C1_8 
REMARK    6  A    between atoms: O3_4  and  C2_9 
REMARK    7  A    between atoms: O3_4  and  C3_10 
REMARK    8  A    between atoms: O3_4  and  C6_13 
REMARK    9  A    between atoms: O3_4  and  C7_14 
REMARK   10  A    between atoms: N1_5  and  C2_9 
REMARK   11  A    between atoms: N1_5  and  C3_10 
REMARK   12  A    between atoms: N2_6  and  C3_10 
REMARK   13  A    between atoms: N3_7  and  C9_16 
REMARK   14  A    between atoms: C1_8  and  C10_17 
REMARK   15  A    between atoms: C2_9  and  C4_11 
REMARK   16  A    between atoms: C3_10  and  C4_11 
REMARK   17  A    between atoms: C3_10  and  C11_18 
REMARK   18  A    between atoms: C4_11  and  C7_14 
REMARK   19  A    between atoms: C5_12  and  C6_13 
REMARK   20  A    between atoms: C5_12  and  C9_16 
REMARK   21  A    between atoms: C5_12  and  C10_17 
REMARK   22  A    between atoms: C6_13  and  C7_14 
REMARK   23  A    between atoms: C6_13  and  C8_15 
REMARK   24  A    between atoms: C6_13  and  C10_17 
REMARK   25  A    between atoms: C8_15  and  C9_16 
REMARK   26  A    between atoms: C9_16  and  C10_17 
ROOT
HETATM    1  S1  UNL     1     -38.283  14.061  50.405  1.00  0.00    -0.223 SA
HETATM    2  O2  UNL     1     -37.853  14.755  50.522  1.00  0.00     0.000 OA
HETATM    3  O3  UNL     1     -38.713  13.366  50.289  1.00  0.00     0.000 OA
HETATM    4  N1  UNL     1     -37.596  13.617  50.512  1.00  0.00     0.000 N 
HETATM    5  N3  UNL     1     -41.033  15.835  49.980  1.00  0.00    -0.274 NA
HETATM    6  C1  UNL     1     -38.971  14.504  50.299  1.00  0.00     0.056 A 
HETATM    7  C5  UNL     1     -38.942  15.327  50.347  1.00  0.00     0.056 A 
HETATM    8  C6  UNL     1     -39.686  14.125  50.145  1.00  0.00     0.054 A 
HETATM    9  C8  UNL     1     -39.629  15.770  50.240  1.00  0.00     0.070 A 
HETATM   10  C9  UNL     1     -40.374  14.569  50.039  1.00  0.00     0.070 A 
HETATM   11  C10 UNL     1     -40.345  15.392  50.087  1.00  0.00     0.070 A 
ENDROOT
BRANCH   1  12
HETATM   12  C2  UNL     1     -37.624  12.794  50.464  1.00  0.00     0.029 A 
HETATM   13  O1  UNL     1     -37.573  11.972  50.499  1.00  0.00     0.000 OA
HETATM   14  N2  UNL     1     -36.774  11.765  50.515  1.00  0.00     0.000 N 
HETATM   15  C3  UNL     1     -36.856  13.097  50.458  1.00  0.00     0.024 A 
HETATM   16  C4  UNL     1     -36.332  12.461  50.490  1.00  0.00     0.022 A 
HETATM   17  C11 UNL     1     -35.508  12.511  50.495  1.00  0.00     0.011 A 
HETATM   18  C7  UNL     1     -36.649  13.895  50.427  1.00  0.00     0.032 A 
ENDBRANCH   1  12
TORSDOF 26
ENDMDL
