MODEL 1
REMARK VINA RESULT:     130.5      0.000      0.000
REMARK  18 active torsions:
REMARK  status: ('A' for Active; 'I' for Inactive)
REMARK    1  A    between atoms: O1_1  and  C4_6 
REMARK    2  A    between atoms: N1_2  and  C11_13 
REMARK    3  A    between atoms: C1_3  and  C5_7 
REMARK    4  A    between atoms: C1_3  and  C10_12 
REMARK    5  A    between atoms: C2_4  and  C3_5 
REMARK    6  A    between atoms: C2_4  and  C5_7 
REMARK    7  A    between atoms: C2_4  and  C8_10 
REMARK    8  A    between atoms: C2_4  and  C11_13 
REMARK    9  A    between atoms: C3_5  and  C4_6 
REMARK   10  A    between atoms: C3_5  and  C9_11 
REMARK   11  A    between atoms: C4_6  and  C5_7 
REMARK   12  A    between atoms: C4_6  and  C6_8 
REMARK   13  A    between atoms: C4_6  and  C10_12 
REMARK   14  A    between atoms: C5_7  and  C7_9 
REMARK   15  A    between atoms: C6_8  and  C8_10 
REMARK   16  A    between atoms: C6_8  and  C9_11 
REMARK   17  A    between atoms: C7_9  and  C11_13 
REMARK   18  A    between atoms: C9_11  and  C10_12 
ROOT
HETATM    1  O1  UNL     1     -41.213  13.538  47.707  1.00  0.00     0.000 OA
HETATM    2  N1  UNL     1     -41.249  12.966  49.016  1.00  0.00     0.000 N 
HETATM    3  C1  UNL     1     -41.230  12.210  48.686  1.00  0.00     0.001 A 
HETATM    4  C2  UNL     1     -41.276  13.058  49.835  1.00  0.00     0.003 A 
HETATM    5  C3  UNL     1     -41.238  11.546  49.175  1.00  0.00     0.000 A 
HETATM    6  C4  UNL     1     -41.202  12.118  47.867  1.00  0.00     0.001 A 
HETATM    7  C5  UNL     1     -41.241  13.630  48.527  1.00  0.00     0.006 A 
HETATM    8  C6  UNL     1     -41.219  10.791  48.846  1.00  0.00     0.000 A 
HETATM    9  C7  UNL     1     -41.296  13.815  50.165  1.00  0.00     0.004 A 
HETATM   10  C8  UNL     1     -41.265  11.638  49.995  1.00  0.00     0.000 A 
HETATM   11  C9  UNL     1     -41.183  11.363  47.537  1.00  0.00     0.000 A 
HETATM   12  C10 UNL     1     -41.191  10.699  48.026  1.00  0.00     0.000 A 
HETATM   13  C11 UNL     1     -41.260  14.387  48.857  1.00  0.00     0.015 A 
HETATM   14  C12 UNL     1     -41.252  15.050  48.366  1.00  0.00     0.021 A 
HETATM   15  C13 UNL     1     -41.271  15.806  48.696  1.00  0.00    -0.052 A 
ENDROOT
TORSDOF 18
ENDMDL
