MODEL 1
REMARK VINA RESULT:     244.4      0.000      0.000
REMARK  18 active torsions:
REMARK  status: ('A' for Active; 'I' for Inactive)
REMARK    1  A    between atoms: N2_3  and  C7_10 
REMARK    2  A    between atoms: C1_4  and  C11_14 
REMARK    3  A    between atoms: C2_5  and  C4_7 
REMARK    4  A    between atoms: C3_6  and  C8_11 
REMARK    5  A    between atoms: C3_6  and  C13_16 
REMARK    6  A    between atoms: C4_7  and  C5_8 
REMARK    7  A    between atoms: C4_7  and  C10_13 
REMARK    8  A    between atoms: C5_8  and  C9_12 
REMARK    9  A    between atoms: C6_9  and  C11_14 
REMARK   10  A    between atoms: C6_9  and  C12_15 
REMARK   11  A    between atoms: C6_9  and  C13_16 
REMARK   12  A    between atoms: C6_9  and  C14_17 
REMARK   13  A    between atoms: C7_10  and  C8_11 
REMARK   14  A    between atoms: C8_11  and  C11_14 
REMARK   15  A    between atoms: C8_11  and  C14_17 
REMARK   16  A    between atoms: C9_12  and  C10_13 
REMARK   17  A    between atoms: C11_14  and  C13_16 
REMARK   18  A    between atoms: C13_16  and  C14_17 
ROOT
HETATM    1  O1  UNL     1     -41.039  15.837  50.261  1.00  0.00    -0.361 OA
HETATM    2  N1  UNL     1     -37.308  13.240  50.454  1.00  0.00     0.000 N 
HETATM    3  N2  UNL     1     -41.325  14.404  50.369  1.00  0.00     0.000 N 
HETATM    4  C1  UNL     1     -38.102  13.018  50.471  1.00  0.00     0.010 A 
HETATM    5  C2  UNL     1     -38.693  13.592  50.429  1.00  0.00     0.010 A 
HETATM    6  C3  UNL     1     -39.487  13.370  50.446  1.00  0.00     0.025 A 
HETATM    7  C4  UNL     1     -37.104  14.037  50.395  1.00  0.00     0.020 A 
HETATM    8  C5  UNL     1     -36.718  12.666  50.497  1.00  0.00     0.022 A 
HETATM    9  C6  UNL     1     -40.077  13.945  50.403  1.00  0.00     0.040 A 
HETATM   10  C7  UNL     1     -40.047  14.762  50.342  1.00  0.00     0.098 A 
HETATM   11  C8  UNL     1     -40.871  13.722  50.420  1.00  0.00     0.043 A 
HETATM   12  C9  UNL     1     -36.310  14.260  50.378  1.00  0.00     0.025 A 
HETATM   13  C10 UNL     1     -35.924  12.889  50.480  1.00  0.00     0.025 A 
HETATM   14  C11 UNL     1     -39.690  12.573  50.506  1.00  0.00     0.011 A 
HETATM   15  C12 UNL     1     -40.816  15.045  50.321  1.00  0.00     0.117 A 
HETATM   16  C13 UNL     1     -41.075  12.925  50.480  1.00  0.00     0.011 A 
HETATM   17  C14 UNL     1     -40.485  12.350  50.523  1.00  0.00     0.011 A 
HETATM   18  C15 UNL     1     -36.106  15.057  50.318  1.00  0.00    -0.052 A 
HETATM   19  C16 UNL     1     -35.333  12.314  50.523  1.00  0.00    -0.052 A 
ENDROOT
TORSDOF 18
ENDMDL
