MODEL 1
REMARK VINA RESULT:      34.0      0.000      0.000
REMARK  12 active torsions:
REMARK  status: ('A' for Active; 'I' for Inactive)
REMARK    1  A    between atoms: C1_3  and  C4_6 
REMARK    2  A    between atoms: C2_4  and  C3_5 
REMARK    3  A    between atoms: C2_4  and  C5_7 
REMARK    4  A    between atoms: C3_5  and  C4_6 
REMARK    5  A    between atoms: C3_5  and  C9_11 
REMARK    6  A    between atoms: C4_6  and  C5_7 
REMARK    7  A    between atoms: C5_7  and  C6_8 
REMARK    8  A    between atoms: C5_7  and  C8_10 
REMARK    9  A    between atoms: C6_8  and  C7_9 
REMARK   10  A    between atoms: C6_8  and  C9_11 
REMARK   11  A    between atoms: C7_9  and  C8_10 
REMARK   12  A    between atoms: C8_10  and  C9_11 
ROOT
HETATM    1  O1  UNL     1     -38.750  15.686  48.356  1.00  0.00     0.000 OA
HETATM    2  N1  UNL     1     -37.561  15.812  49.494  1.00  0.00    -0.277 NA
HETATM    3  C1  UNL     1     -38.946  15.727  49.157  1.00  0.00     0.052 A 
HETATM    4  C2  UNL     1     -38.352  15.790  49.725  1.00  0.00     0.061 A 
HETATM    5  C3  UNL     1     -39.738  15.704  49.388  1.00  0.00     0.032 A 
HETATM    6  C4  UNL     1     -38.549  15.830  50.525  1.00  0.00     0.061 A 
HETATM    7  C5  UNL     1     -39.935  15.744  50.188  1.00  0.00     0.032 A 
HETATM    8  C6  UNL     1     -40.333  15.641  48.819  1.00  0.00     0.017 A 
HETATM    9  C7  UNL     1     -40.727  15.722  50.420  1.00  0.00     0.008 A 
HETATM   10  C8  UNL     1     -41.124  15.618  49.051  1.00  0.00     0.008 A 
HETATM   11  C9  UNL     1     -41.321  15.659  49.851  1.00  0.00     0.008 A 
ENDROOT
TORSDOF 12
ENDMDL
