MODEL 1
REMARK VINA RESULT:     376.1      0.000      0.000
REMARK WARNING: 32 MAX_TORS EXCEEDED!!!
REMARK  33 active torsions:
REMARK  status: ('A' for Active; 'I' for Inactive)
REMARK    1  A    between atoms: CL1_1  and  C17_20 
REMARK    2  A    between atoms: O1_2  and  C13_16 
REMARK    3  A    between atoms: O1_2  and  C14_17 
REMARK    4  A    between atoms: N1_3  and  C3_6 
REMARK    5  A    between atoms: C1_4  and  C6_9 
REMARK    6  A    between atoms: C2_5  and  C4_7 
REMARK    7  A    between atoms: C2_5  and  C5_8 
REMARK    8  A    between atoms: C2_5  and  C18_21 
REMARK    9  A    between atoms: C3_6  and  C4_7 
REMARK   10  A    between atoms: C4_7  and  C7_10 
REMARK   11  A    between atoms: C5_8  and  C14_17 
REMARK   12  A    between atoms: C6_9  and  C10_13 
REMARK   13  A    between atoms: C6_9  and  C14_17 
REMARK   14  A    between atoms: C6_9  and  C18_21 
REMARK   15  A    between atoms: C9_12  and  C10_13 
REMARK   16  A    between atoms: C9_12  and  C20_23 
REMARK   17  A    between atoms: C10_13  and  C11_14 
REMARK   18  A    between atoms: C10_13  and  C21_24 
REMARK   19  A    between atoms: C11_14  and  C12_15 
REMARK   20  A    between atoms: C11_14  and  C15_18 
REMARK   21  A    between atoms: C12_15  and  C13_16 
REMARK   22  A    between atoms: C12_15  and  C17_20 
REMARK   23  A    between atoms: C12_15  and  C20_23 
REMARK   24  A    between atoms: C13_16  and  C16_19 
REMARK   25  A    between atoms: C13_16  and  C20_23 
REMARK   26  A    between atoms: C14_17  and  C15_18 
REMARK   27  A    between atoms: C14_17  and  C19_22 
REMARK   28  A    between atoms: C15_18  and  C18_21 
REMARK   29  A    between atoms: C15_18  and  C21_24 
REMARK   30  A    between atoms: C16_19  and  C17_20 
REMARK   31  A    between atoms: C17_20  and  C20_23 
REMARK   32  A    between atoms: C18_21  and  C19_22 
REMARK   33  A    between atoms: C19_22  and  C21_24 
ROOT
HETATM    1 CL1  UNL     1     -40.893  10.402  47.702  1.00  0.00    -0.251 Cl
HETATM    2  O1  UNL     1     -39.339  13.234  48.768  1.00  0.00     0.000 OA
HETATM    3  N1  UNL     1     -36.758  14.473  48.314  1.00  0.00     0.000 N 
HETATM    4  C1  UNL     1     -37.512  14.422  48.646  1.00  0.00     0.000 A 
HETATM    5  C2  UNL     1     -37.624  15.083  49.125  1.00  0.00     0.000 A 
HETATM    6  C3  UNL     1     -36.940  15.543  49.089  1.00  0.00     0.000 A 
HETATM    7  C4  UNL     1     -36.405  15.166  48.588  1.00  0.00     0.000 A 
HETATM    8  C5  UNL     1     -38.057  13.815  48.521  1.00  0.00     0.000 A 
HETATM    9  C6  UNL     1     -38.793  13.839  48.892  1.00  0.00     0.000 A 
HETATM   10  C7  UNL     1     -36.417  13.926  47.798  1.00  0.00     0.000 A 
HETATM   11  C8  UNL     1     -40.075  13.258  49.139  1.00  0.00     0.008 A 
HETATM   12  C9  UNL     1     -40.279  12.544  48.780  1.00  0.00     0.028 A 
HETATM   13  C10 UNL     1     -39.870  13.972  49.498  1.00  0.00     0.003 A 
HETATM   14  C11 UNL     1     -40.811  13.282  49.511  1.00  0.00     0.006 A 
HETATM   15  C12 UNL     1     -41.019  12.207  48.922  1.00  0.00     0.030 A 
HETATM   16  C13 UNL     1     -39.745  12.165  48.279  1.00  0.00     0.032 A 
HETATM   17  C14 UNL     1     -39.131  14.307  49.356  1.00  0.00     0.000 A 
HETATM   18  C15 UNL     1     -40.405  14.349  49.999  1.00  0.00     0.001 A 
HETATM   19  C16 UNL     1     -41.224  11.493  48.563  1.00  0.00     0.047 A 
HETATM   20  C17 UNL     1     -39.949  11.451  47.919  1.00  0.00     0.047 A 
HETATM   21  C18 UNL     1     -38.926  15.021  49.715  1.00  0.00     0.000 A 
HETATM   22  C19 UNL     1     -40.200  15.063  50.359  1.00  0.00     0.000 A 
HETATM   23  C20 UNL     1     -40.689  11.116  48.062  1.00  0.00     0.047 A 
HETATM   24  C21 UNL     1     -39.461  15.399  50.217  1.00  0.00     0.000 A 
ENDROOT
TORSDOF 33
ENDMDL
