MODEL 1
REMARK VINA RESULT:     301.1      0.000      0.000
REMARK WARNING: 32 MAX_TORS EXCEEDED!!!
REMARK  49 active torsions:
REMARK  status: ('A' for Active; 'I' for Inactive)
REMARK    1  A    between atoms: O1_1  and  C10_18 
REMARK    2  A    between atoms: O2_2  and  C3_11 
REMARK    3  A    between atoms: O2_2  and  C12_20 
REMARK    4  A    between atoms: O3_3  and  C4_12 
REMARK    5  A    between atoms: O3_3  and  C9_17 
REMARK    6  A    between atoms: O3_3  and  C14_22 
REMARK    7  A    between atoms: O3_3  and  C18_26 
REMARK    8  A    between atoms: O4_4  and  O5_5 
REMARK    9  A    between atoms: O5_5  and  N2_7 
REMARK   10  A    between atoms: O5_5  and  C19_27 
REMARK   11  A    between atoms: N1_6  and  C3_11 
REMARK   12  A    between atoms: N2_7  and  C4_12 
REMARK   13  A    between atoms: N2_7  and  C11_19 
REMARK   14  A    between atoms: N2_7  and  C13_21 
REMARK   15  A    between atoms: N3_8  and  C7_15 
REMARK   16  A    between atoms: C1_9  and  C6_14 
REMARK   17  A    between atoms: C1_9  and  C7_15 
REMARK   18  A    between atoms: C1_9  and  C8_16 
REMARK   19  A    between atoms: C1_9  and  C11_19 
REMARK   20  A    between atoms: C2_10  and  C6_14 
REMARK   21  A    between atoms: C2_10  and  C9_17 
REMARK   22  A    between atoms: C2_10  and  C10_18 
REMARK   23  A    between atoms: C3_11  and  C6_14 
REMARK   24  A    between atoms: C3_11  and  C11_19 
REMARK   25  A    between atoms: C3_11  and  C4_12 
REMARK   26  A    between atoms: C3_11  and  C5_13 
REMARK   27  A    between atoms: C3_11  and  C7_15 
REMARK   28  A    between atoms: C3_11  and  C12_20 
REMARK   29  A    between atoms: C4_12  and  C7_15 
REMARK   30  A    between atoms: C4_12  and  C8_16 
REMARK   31  A    between atoms: C4_12  and  C11_19 
REMARK   32  A    between atoms: C4_12  and  C13_21 
REMARK   33  A    between atoms: C4_12  and  C15_23 
REMARK   34  A    between atoms: C5_13  and  C8_16 
REMARK   35  A    between atoms: C6_14  and  C11_19 
REMARK   36  A    between atoms: C7_15  and  C13_21 
REMARK   37  A    between atoms: C7_15  and  C9_17 
REMARK   38  A    between atoms: C7_15  and  C11_19 
REMARK   39  A    between atoms: C7_15  and  C14_22 
REMARK   40  A    between atoms: C7_15  and  C15_23 
REMARK   41  A    between atoms: C8_16  and  C9_17 
REMARK   42  A    between atoms: C8_16  and  C10_18 
REMARK   43  A    between atoms: C8_16  and  C18_26 
REMARK   44  A    between atoms: C9_17  and  C13_21 
REMARK   45  A    between atoms: C9_17  and  C15_23 
REMARK   46  A    between atoms: C11_19  and  C12_20 
REMARK   47  A    between atoms: C13_21  and  C14_22 
REMARK   48  A    between atoms: C14_22  and  C15_23 
REMARK   49  A    between atoms: C17_25  and  C18_26 
ROOT
HETATM    1  O1  UNL     1     -40.067  11.520  48.305  1.00  0.00     0.000 OA
HETATM    2  O3  UNL     1     -40.697  12.797  48.415  1.00  0.00     0.000 OA
HETATM    3  N1  UNL     1     -38.218  12.307  49.750  1.00  0.00     0.000 N 
HETATM    4  C1  UNL     1     -39.464  13.322  49.378  1.00  0.00     0.000 A 
HETATM    5  C2  UNL     1     -39.457  12.553  49.083  1.00  0.00     0.000 A 
HETATM    6  C3  UNL     1     -38.848  13.585  49.860  1.00  0.00     0.000 A 
HETATM    7  C4  UNL     1     -40.088  13.830  49.192  1.00  0.00     0.000 A 
HETATM    8  C5  UNL     1     -38.834  12.045  49.269  1.00  0.00     0.000 A 
HETATM    9  C6  UNL     1     -38.225  13.078  50.046  1.00  0.00     0.000 A 
HETATM   10  C8  UNL     1     -40.074  12.289  48.601  1.00  0.00     0.000 A 
HETATM   11  C9  UNL     1     -40.704  13.568  48.710  1.00  0.00     0.000 A 
HETATM   12  C10 UNL     1     -38.827  11.274  48.973  1.00  0.00     0.000 A 
HETATM   13  C12 UNL     1     -37.608  13.341  50.528  1.00  0.00     0.000 A 
HETATM   14  C14 UNL     1     -41.327  14.075  48.524  1.00  0.00     0.000 A 
HETATM   15  C16 UNL     1     -40.682  11.257  47.824  1.00  0.00     0.000 A 
HETATM   16  C17 UNL     1     -40.676  10.487  47.528  1.00  0.00     0.000 A 
HETATM   17  C18 UNL     1     -41.306  11.765  47.638  1.00  0.00     0.000 A 
ENDROOT
BRANCH   4  18
HETATM   18  C7  UNL     1     -40.095  14.601  49.488  1.00  0.00     0.000 A 
HETATM   19  N2  UNL     1     -39.604  15.075  49.032  1.00  0.00     0.000 N 
HETATM   20  O4  UNL     1     -39.903  15.838  49.045  1.00  0.00     0.000 OA
HETATM   21  N3  UNL     1     -40.580  15.838  49.508  1.00  0.00     0.000 N 
HETATM   22  C13 UNL     1     -40.701  15.075  49.784  1.00  0.00     0.000 A 
HETATM   23  C15 UNL     1     -41.284  14.745  50.266  1.00  0.00     0.000 A 
BRANCH  19  24
HETATM   24  O5  UNL     1     -38.929  15.259  48.523  1.00  0.00     0.000 OA
HETATM   25  C11 UNL     1     -38.921  15.777  49.165  1.00  0.00     0.000 A 
HETATM   26  O2  UNL     1     -38.335  15.828  48.587  1.00  0.00     0.000 OA
HETATM   27  C19 UNL     1     -38.342  15.311  47.946  1.00  0.00     0.000 A 
ENDBRANCH  19  24
ENDBRANCH   4  18
TORSDOF 49
ENDMDL
