MODEL 1
REMARK VINA RESULT:     285.1      0.000      0.000
REMARK  25 active torsions:
REMARK  status: ('A' for Active; 'I' for Inactive)
REMARK    1  A    between atoms: S1_1  and  O3_4 
REMARK    2  A    between atoms: O1_2  and  O3_4 
REMARK    3  A    between atoms: O1_2  and  C3_13 
REMARK    4  A    between atoms: O2_3  and  C4_14 
REMARK    5  A    between atoms: O2_3  and  C8_18 
REMARK    6  A    between atoms: O3_4  and  O6_7 
REMARK    7  A    between atoms: O3_4  and  C8_18 
REMARK    8  A    between atoms: O4_5  and  O5_6 
REMARK    9  A    between atoms: O4_5  and  C4_14 
REMARK   10  A    between atoms: O5_6  and  C5_15 
REMARK   11  A    between atoms: O6_7  and  C3_13 
REMARK   12  A    between atoms: O8_9  and  N1_10 
REMARK   13  A    between atoms: O8_9  and  C8_18 
REMARK   14  A    between atoms: C1_11  and  C4_14 
REMARK   15  A    between atoms: C1_11  and  C5_15 
REMARK   16  A    between atoms: C1_11  and  C8_18 
REMARK   17  A    between atoms: C2_12  and  C3_13 
REMARK   18  A    between atoms: C2_12  and  C5_15 
REMARK   19  A    between atoms: C3_13  and  C8_18 
REMARK   20  A    between atoms: C3_13  and  C4_14 
REMARK   21  A    between atoms: C3_13  and  C6_16 
REMARK   22  A    between atoms: C4_14  and  C5_15 
REMARK   23  A    between atoms: C5_15  and  C8_18 
REMARK   24  A    between atoms: C9_19  and  C10_20 
REMARK   25  A    between atoms: C11_21  and  C12_22 
ROOT
HETATM    1  S1  UNL     1     -36.221  12.348  50.281  1.00  0.00    -0.031 SA
HETATM    2  O6  UNL     1     -37.041  12.408  50.220  1.00  0.00     0.000 OA
HETATM    3  O7  UNL     1     -36.263  11.552  50.068  1.00  0.00     0.000 OA
HETATM    4  O8  UNL     1     -36.179  13.144  50.495  1.00  0.00     0.000 OA
HETATM    5  N1  UNL     1     -35.400  12.289  50.343  1.00  0.00    -0.061 NA
HETATM    6  C8  UNL     1     -37.416  13.127  50.374  1.00  0.00     0.056 A 
ENDROOT
BRANCH   1   7
HETATM    7  O3  UNL     1     -38.026  12.415  50.129  1.00  0.00     0.000 OA
HETATM    8  C3  UNL     1     -38.229  13.202  50.243  1.00  0.00     0.010 A 
HETATM    9  O2  UNL     1     -37.777  13.874  50.396  1.00  0.00     0.000 OA
HETATM   10  C1  UNL     1     -39.050  13.262  50.179  1.00  0.00     0.010 A 
HETATM   11  C5  UNL     1     -38.146  14.607  50.486  1.00  0.00     0.011 A 
HETATM   12  O1  UNL     1     -39.346  12.512  50.026  1.00  0.00     0.000 OA
HETATM   13  C2  UNL     1     -39.418  13.995  50.268  1.00  0.00     0.002 A 
HETATM   14  O4  UNL     1     -40.205  14.223  50.235  1.00  0.00     0.000 OA
HETATM   15  C6  UNL     1     -38.715  11.990  49.996  1.00  0.00     0.002 A 
HETATM   16  C10 UNL     1     -39.236  11.369  49.845  1.00  0.00     0.000 A 
HETATM   17  C4  UNL     1     -38.966  14.667  50.422  1.00  0.00     0.002 A 
HETATM   18  O5  UNL     1     -39.477  15.306  50.482  1.00  0.00     0.000 OA
HETATM   19  C7  UNL     1     -40.242  15.032  50.367  1.00  0.00     0.000 A 
HETATM   20  C12 UNL     1     -40.531  15.797  50.469  1.00  0.00     0.000 A 
HETATM   21  C11 UNL     1     -41.063  15.006  50.289  1.00  0.00     0.000 A 
HETATM   22  C9  UNL     1     -38.272  11.298  49.920  1.00  0.00     0.000 A 
ENDBRANCH   1   7
TORSDOF 25
ENDMDL
