MODEL 1
REMARK VINA RESULT:     482.4      0.000      0.000
REMARK WARNING: 32 MAX_TORS EXCEEDED!!!
REMARK  43 active torsions:
REMARK  status: ('A' for Active; 'I' for Inactive)
REMARK    1  A    between atoms: S1_1  and  C14_21 
REMARK    2  A    between atoms: O2_3  and  C10_17 
REMARK    3  A    between atoms: O2_3  and  C14_21 
REMARK    4  A    between atoms: O3_4  and  C20_27 
REMARK    5  A    between atoms: N1_5  and  C9_16 
REMARK    6  A    between atoms: N2_6  and  C3_10 
REMARK    7  A    between atoms: N3_7  and  C14_21 
REMARK    8  A    between atoms: C1_8  and  C4_11 
REMARK    9  A    between atoms: C1_8  and  C5_12 
REMARK   10  A    between atoms: C1_8  and  C11_18 
REMARK   11  A    between atoms: C2_9  and  C3_10 
REMARK   12  A    between atoms: C2_9  and  C5_12 
REMARK   13  A    between atoms: C2_9  and  C12_19 
REMARK   14  A    between atoms: C3_10  and  C5_12 
REMARK   15  A    between atoms: C3_10  and  C4_11 
REMARK   16  A    between atoms: C3_10  and  C6_13 
REMARK   17  A    between atoms: C3_10  and  C11_18 
REMARK   18  A    between atoms: C3_10  and  C13_20 
REMARK   19  A    between atoms: C4_11  and  C7_14 
REMARK   20  A    between atoms: C5_12  and  C8_15 
REMARK   21  A    between atoms: C6_13  and  C8_15 
REMARK   22  A    between atoms: C6_13  and  C10_17 
REMARK   23  A    between atoms: C6_13  and  C14_21 
REMARK   24  A    between atoms: C6_13  and  C15_22 
REMARK   25  A    between atoms: C7_14  and  C18_25 
REMARK   26  A    between atoms: C8_15  and  C11_18 
REMARK   27  A    between atoms: C8_15  and  C15_22 
REMARK   28  A    between atoms: C8_15  and  C19_26 
REMARK   29  A    between atoms: C9_16  and  C10_17 
REMARK   30  A    between atoms: C9_16  and  C11_18 
REMARK   31  A    between atoms: C9_16  and  C15_22 
REMARK   32  A    between atoms: C10_17  and  C14_21 
REMARK   33  A    between atoms: C10_17  and  C11_18 
REMARK   34  A    between atoms: C11_18  and  C15_22 
REMARK   35  A    between atoms: C11_18  and  C14_21 
REMARK   36  A    between atoms: C11_18  and  C17_24 
REMARK   37  A    between atoms: C12_19  and  C16_23 
REMARK   38  A    between atoms: C13_20  and  C17_24 
REMARK   39  A    between atoms: C14_21  and  C15_22 
REMARK   40  A    between atoms: C14_21  and  C21_28 
REMARK   41  A    between atoms: C15_22  and  C17_24 
REMARK   42  A    between atoms: C16_23  and  C18_25 
REMARK   43  A    between atoms: C17_24  and  C19_26 
ROOT
HETATM    1  S1  UNL     1     -40.704  15.275  49.488  1.00  0.00    -0.184 SA
HETATM    2  O2  UNL     1     -40.190  14.821  49.947  1.00  0.00     0.000 OA
HETATM    3  O3  UNL     1     -41.219  15.728  49.029  1.00  0.00     0.000 OA
HETATM    4  N3  UNL     1     -40.197  15.197  48.842  1.00  0.00     0.000 N 
HETATM    5  C10 UNL     1     -39.498  14.766  48.916  1.00  0.00     0.027 A 
HETATM    6  C15 UNL     1     -38.990  14.689  48.270  1.00  0.00     0.014 A 
HETATM    7  C20 UNL     1     -41.212  15.352  50.134  1.00  0.00     0.059 A 
ENDROOT
BRANCH   1   8
HETATM    8  C14 UNL     1     -39.306  14.412  49.636  1.00  0.00     0.023 A 
HETATM    9  C9  UNL     1     -38.607  13.980  49.710  1.00  0.00     0.015 A 
HETATM   10  O1  UNL     1     -37.968  14.298  50.125  1.00  0.00     0.000 OA
HETATM   11  C6  UNL     1     -38.546  13.231  49.370  1.00  0.00     0.013 A 
HETATM   12  C21 UNL     1     -38.028  15.047  50.465  1.00  0.00     0.009 A 
HETATM   13  N1  UNL     1     -37.847  12.800  49.445  1.00  0.00     0.000 N 
HETATM   14  C11 UNL     1     -39.185  12.914  48.956  1.00  0.00     0.012 A 
HETATM   15  C1  UNL     1     -37.786  12.051  49.104  1.00  0.00     0.002 A 
HETATM   16  C2  UNL     1     -37.087  11.619  49.178  1.00  0.00     0.000 A 
HETATM   17  C3  UNL     1     -38.425  11.733  48.689  1.00  0.00     0.003 A 
HETATM   18  C4  UNL     1     -37.027  10.870  48.838  1.00  0.00     0.000 A 
HETATM   19  C7  UNL     1     -36.429  11.960  49.612  1.00  0.00     0.000 A 
HETATM   20  N2  UNL     1     -37.665  10.553  48.424  1.00  0.00     0.000 N 
HETATM   21  C16 UNL     1     -35.698  11.516  49.693  1.00  0.00     0.000 A 
HETATM   22  C12 UNL     1     -36.303  10.411  48.908  1.00  0.00     0.000 A 
HETATM   23  C5  UNL     1     -38.365  10.984  48.349  1.00  0.00     0.000 A 
HETATM   24  C18 UNL     1     -35.635  10.736  49.339  1.00  0.00     0.000 A 
HETATM   25  C13 UNL     1     -39.022  10.642  47.915  1.00  0.00     0.000 A 
HETATM   26  C19 UNL     1     -39.754  11.086  47.834  1.00  0.00     0.000 A 
HETATM   27  C8  UNL     1     -39.148  12.192  48.619  1.00  0.00     0.004 A 
HETATM   28  C17 UNL     1     -39.817  11.866  48.188  1.00  0.00     0.003 A 
ENDBRANCH   1   8
TORSDOF 43
ENDMDL
MODEL 2
REMARK VINA RESULT:     484.3      2.029      3.613
REMARK WARNING: 32 MAX_TORS EXCEEDED!!!
REMARK  43 active torsions:
REMARK  status: ('A' for Active; 'I' for Inactive)
REMARK    1  A    between atoms: S1_1  and  C14_21 
REMARK    2  A    between atoms: O2_3  and  C10_17 
REMARK    3  A    between atoms: O2_3  and  C14_21 
REMARK    4  A    between atoms: O3_4  and  C20_27 
REMARK    5  A    between atoms: N1_5  and  C9_16 
REMARK    6  A    between atoms: N2_6  and  C3_10 
REMARK    7  A    between atoms: N3_7  and  C14_21 
REMARK    8  A    between atoms: C1_8  and  C4_11 
REMARK    9  A    between atoms: C1_8  and  C5_12 
REMARK   10  A    between atoms: C1_8  and  C11_18 
REMARK   11  A    between atoms: C2_9  and  C3_10 
REMARK   12  A    between atoms: C2_9  and  C5_12 
REMARK   13  A    between atoms: C2_9  and  C12_19 
REMARK   14  A    between atoms: C3_10  and  C5_12 
REMARK   15  A    between atoms: C3_10  and  C4_11 
REMARK   16  A    between atoms: C3_10  and  C6_13 
REMARK   17  A    between atoms: C3_10  and  C11_18 
REMARK   18  A    between atoms: C3_10  and  C13_20 
REMARK   19  A    between atoms: C4_11  and  C7_14 
REMARK   20  A    between atoms: C5_12  and  C8_15 
REMARK   21  A    between atoms: C6_13  and  C8_15 
REMARK   22  A    between atoms: C6_13  and  C10_17 
REMARK   23  A    between atoms: C6_13  and  C14_21 
REMARK   24  A    between atoms: C6_13  and  C15_22 
REMARK   25  A    between atoms: C7_14  and  C18_25 
REMARK   26  A    between atoms: C8_15  and  C11_18 
REMARK   27  A    between atoms: C8_15  and  C15_22 
REMARK   28  A    between atoms: C8_15  and  C19_26 
REMARK   29  A    between atoms: C9_16  and  C10_17 
REMARK   30  A    between atoms: C9_16  and  C11_18 
REMARK   31  A    between atoms: C9_16  and  C15_22 
REMARK   32  A    between atoms: C10_17  and  C14_21 
REMARK   33  A    between atoms: C10_17  and  C11_18 
REMARK   34  A    between atoms: C11_18  and  C15_22 
REMARK   35  A    between atoms: C11_18  and  C14_21 
REMARK   36  A    between atoms: C11_18  and  C17_24 
REMARK   37  A    between atoms: C12_19  and  C16_23 
REMARK   38  A    between atoms: C13_20  and  C17_24 
REMARK   39  A    between atoms: C14_21  and  C15_22 
REMARK   40  A    between atoms: C14_21  and  C21_28 
REMARK   41  A    between atoms: C15_22  and  C17_24 
REMARK   42  A    between atoms: C16_23  and  C18_25 
REMARK   43  A    between atoms: C17_24  and  C19_26 
ROOT
HETATM    1  S1  UNL     1     -40.633  10.853  48.379  1.00  0.00    -0.184 SA
HETATM    2  O2  UNL     1     -40.009  10.933  48.912  1.00  0.00     0.000 OA
HETATM    3  O3  UNL     1     -41.258  10.772  47.846  1.00  0.00     0.000 OA
HETATM    4  N3  UNL     1     -40.289  11.421  47.889  1.00  0.00     0.000 N 
HETATM    5  C10 UNL     1     -39.576  11.775  48.106  1.00  0.00     0.027 A 
HETATM    6  C15 UNL     1     -39.232  12.343  47.616  1.00  0.00     0.014 A 
HETATM    7  C20 UNL     1     -40.978  10.284  48.868  1.00  0.00     0.059 A 
ENDROOT
BRANCH   1   8
HETATM    8  C14 UNL     1     -39.207  11.560  48.813  1.00  0.00     0.023 A 
HETATM    9  C9  UNL     1     -38.495  11.915  49.029  1.00  0.00     0.015 A 
HETATM   10  O1  UNL     1     -37.798  11.472  49.029  1.00  0.00     0.000 OA
HETATM   11  C6  UNL     1     -38.479  12.710  49.247  1.00  0.00     0.013 A 
HETATM   12  C21 UNL     1     -37.814  10.677  48.811  1.00  0.00     0.009 A 
HETATM   13  N1  UNL     1     -37.765  13.064  49.464  1.00  0.00     0.000 N 
HETATM   14  C11 UNL     1     -39.175  13.152  49.248  1.00  0.00     0.012 A 
HETATM   15  C1  UNL     1     -37.749  13.859  49.681  1.00  0.00     0.002 A 
HETATM   16  C2  UNL     1     -37.036  14.214  49.898  1.00  0.00     0.000 A 
HETATM   17  C3  UNL     1     -38.446  14.302  49.682  1.00  0.00     0.003 A 
HETATM   18  C4  UNL     1     -37.020  15.009  50.116  1.00  0.00     0.000 A 
HETATM   19  C7  UNL     1     -36.317  13.743  49.894  1.00  0.00     0.000 A 
HETATM   20  N2  UNL     1     -37.716  15.451  50.116  1.00  0.00     0.000 N 
HETATM   21  C16 UNL     1     -35.572  14.106  50.118  1.00  0.00     0.000 A 
HETATM   22  C12 UNL     1     -36.283  15.389  50.344  1.00  0.00     0.000 A 
HETATM   23  C5  UNL     1     -38.430  15.097  49.900  1.00  0.00     0.000 A 
HETATM   24  C18 UNL     1     -35.555  14.934  50.345  1.00  0.00     0.000 A 
HETATM   25  C13 UNL     1     -39.148  15.568  49.905  1.00  0.00     0.000 A 
HETATM   26  C19 UNL     1     -39.895  15.205  49.680  1.00  0.00     0.000 A 
HETATM   27  C8  UNL     1     -39.182  13.922  49.454  1.00  0.00     0.004 A 
HETATM   28  C17 UNL     1     -39.912  14.377  49.453  1.00  0.00     0.003 A 
ENDBRANCH   1   8
TORSDOF 43
ENDMDL
