MODEL 1
REMARK VINA RESULT:      47.9      0.000      0.000
REMARK  16 active torsions:
REMARK  status: ('A' for Active; 'I' for Inactive)
REMARK    1  A    between atoms: P1_1  and  O5_7 
REMARK    2  A    between atoms: P1_1  and  C3_13 
REMARK    3  A    between atoms: P2_2  and  C1_11 
REMARK    4  A    between atoms: P2_2  and  O1_3 
REMARK    5  A    between atoms: P2_2  and  C2_12 
REMARK    6  A    between atoms: P2_2  and  C3_13 
REMARK    7  A    between atoms: O1_3  and  O5_7 
REMARK    8  A    between atoms: O1_3  and  O6_8 
REMARK    9  A    between atoms: O2_4  and  C2_12 
REMARK   10  A    between atoms: O2_4  and  C3_13 
REMARK   11  A    between atoms: O5_7  and  C1_11 
REMARK   12  A    between atoms: O6_8  and  C1_11 
REMARK   13  A    between atoms: O7_9  and  C1_11 
REMARK   14  A    between atoms: O7_9  and  C2_12 
REMARK   15  A    between atoms: O7_9  and  C3_13 
REMARK   16  A    between atoms: C1_11  and  C3_13 
ROOT
HETATM    1  P1  UNL     1     -40.155  15.679  49.778  1.00  0.00    -0.020 P 
HETATM    2  P2  UNL     1     -39.053  15.781  48.554  1.00  0.00    -0.020 P 
HETATM    3  O1  UNL     1     -40.216  15.698  48.614  1.00  0.00     0.000 OA
HETATM    4  O2  UNL     1     -39.545  15.711  50.331  1.00  0.00     0.000 OA
HETATM    5  O3  UNL     1     -40.707  15.628  50.390  1.00  0.00     0.000 OA
HETATM    6  O4  UNL     1     -38.503  15.831  47.942  1.00  0.00     0.000 OA
HETATM    7  O5  UNL     1     -39.665  15.749  48.001  1.00  0.00     0.000 OA
HETATM    8  O6  UNL     1     -40.960  15.626  49.605  1.00  0.00     0.000 OA
HETATM    9  O7  UNL     1     -38.291  15.828  48.865  1.00  0.00     0.000 OA
HETATM   10  N1  UNL     1     -37.785  15.832  50.479  1.00  0.00    -0.285 NA
HETATM   11  C1  UNL     1     -39.605  15.730  49.166  1.00  0.00     0.087 A 
HETATM   12  C2  UNL     1     -38.993  15.762  49.719  1.00  0.00     0.120 A 
HETATM   13  C3  UNL     1     -38.171  15.819  49.750  1.00  0.00     0.120 A 
ENDROOT
TORSDOF 16
ENDMDL
MODEL 2
REMARK VINA RESULT:      48.1      1.233      2.122
REMARK  16 active torsions:
REMARK  status: ('A' for Active; 'I' for Inactive)
REMARK    1  A    between atoms: P1_1  and  O5_7 
REMARK    2  A    between atoms: P1_1  and  C3_13 
REMARK    3  A    between atoms: P2_2  and  C1_11 
REMARK    4  A    between atoms: P2_2  and  O1_3 
REMARK    5  A    between atoms: P2_2  and  C2_12 
REMARK    6  A    between atoms: P2_2  and  C3_13 
REMARK    7  A    between atoms: O1_3  and  O5_7 
REMARK    8  A    between atoms: O1_3  and  O6_8 
REMARK    9  A    between atoms: O2_4  and  C2_12 
REMARK   10  A    between atoms: O2_4  and  C3_13 
REMARK   11  A    between atoms: O5_7  and  C1_11 
REMARK   12  A    between atoms: O6_8  and  C1_11 
REMARK   13  A    between atoms: O7_9  and  C1_11 
REMARK   14  A    between atoms: O7_9  and  C2_12 
REMARK   15  A    between atoms: O7_9  and  C3_13 
REMARK   16  A    between atoms: C1_11  and  C3_13 
ROOT
HETATM    1  P1  UNL     1     -40.648  14.560  48.396  1.00  0.00    -0.020 P 
HETATM    2  P2  UNL     1     -40.515  15.399  49.811  1.00  0.00    -0.020 P 
HETATM    3  O1  UNL     1     -41.326  14.708  49.333  1.00  0.00     0.000 OA
HETATM    4  O2  UNL     1     -39.904  14.831  48.165  1.00  0.00     0.000 OA
HETATM    5  O3  UNL     1     -40.715  14.141  47.688  1.00  0.00     0.000 OA
HETATM    6  O4  UNL     1     -40.449  15.817  50.518  1.00  0.00     0.000 OA
HETATM    7  O5  UNL     1     -41.260  15.127  50.041  1.00  0.00     0.000 OA
HETATM    8  O6  UNL     1     -41.326  14.116  48.242  1.00  0.00     0.000 OA
HETATM    9  O7  UNL     1     -39.793  15.796  49.836  1.00  0.00     0.000 OA
HETATM   10  N1  UNL     1     -38.548  15.838  48.692  1.00  0.00    -0.285 NA
HETATM   11  C1  UNL     1     -40.582  14.979  49.103  1.00  0.00     0.087 A 
HETATM   12  C2  UNL     1     -39.837  15.250  48.873  1.00  0.00     0.120 A 
HETATM   13  C3  UNL     1     -39.225  15.727  49.151  1.00  0.00     0.120 A 
ENDROOT
TORSDOF 16
ENDMDL
