MODEL 1
REMARK VINA RESULT:     208.5      0.000      0.000
REMARK  32 active torsions:
REMARK  status: ('A' for Active; 'I' for Inactive)
REMARK    1  A    between atoms: O1_1  and  C8_11 
REMARK    2  A    between atoms: O2_2  and  C15_18 
REMARK    3  A    between atoms: N1_3  and  C10_13 
REMARK    4  A    between atoms: C1_4  and  C7_10 
REMARK    5  A    between atoms: C1_4  and  C8_11 
REMARK    6  A    between atoms: C1_4  and  C11_14 
REMARK    7  A    between atoms: C2_5  and  C3_6 
REMARK    8  A    between atoms: C2_5  and  C13_16 
REMARK    9  A    between atoms: C3_6  and  C4_7 
REMARK   10  A    between atoms: C3_6  and  C6_9 
REMARK   11  A    between atoms: C4_7  and  C5_8 
REMARK   12  A    between atoms: C4_7  and  C7_10 
REMARK   13  A    between atoms: C4_7  and  C9_12 
REMARK   14  A    between atoms: C4_7  and  C11_14 
REMARK   15  A    between atoms: C5_8  and  C6_9 
REMARK   16  A    between atoms: C6_9  and  C7_10 
REMARK   17  A    between atoms: C6_9  and  C11_14 
REMARK   18  A    between atoms: C8_11  and  C9_12 
REMARK   19  A    between atoms: C8_11  and  C10_13 
REMARK   20  A    between atoms: C9_12  and  C13_16 
REMARK   21  A    between atoms: C9_12  and  C16_19 
REMARK   22  A    between atoms: C10_13  and  C11_14 
REMARK   23  A    between atoms: C10_13  and  C13_16 
REMARK   24  A    between atoms: C10_13  and  C15_18 
REMARK   25  A    between atoms: C10_13  and  C16_19 
REMARK   26  A    between atoms: C11_14  and  C14_17 
REMARK   27  A    between atoms: C11_14  and  C16_19 
REMARK   28  A    between atoms: C12_15  and  C13_16 
REMARK   29  A    between atoms: C13_16  and  C14_17 
REMARK   30  A    between atoms: C14_17  and  C15_18 
REMARK   31  A    between atoms: C14_17  and  C17_20 
REMARK   32  A    between atoms: C15_18  and  C16_19 
ROOT
HETATM    1  O1  UNL     1     -41.180  13.569  48.817  1.00  0.00     0.000 OA
HETATM    2  O2  UNL     1     -37.451  14.811  47.567  1.00  0.00     0.000 OA
HETATM    3  N1  UNL     1     -40.614  15.054  49.261  1.00  0.00     0.000 N 
HETATM    4  C1  UNL     1     -40.718  13.075  48.345  1.00  0.00     0.000 A 
HETATM    5  C2  UNL     1     -40.434  13.818  48.567  1.00  0.00     0.000 A 
HETATM    6  C3  UNL     1     -41.312  12.503  48.361  1.00  0.00     0.000 A 
HETATM    7  C4  UNL     1     -40.021  12.933  47.929  1.00  0.00     0.000 A 
HETATM    8  C5  UNL     1     -41.209  11.789  47.961  1.00  0.00     0.000 A 
HETATM    9  C6  UNL     1     -39.917  12.219  47.528  1.00  0.00     0.000 A 
HETATM   10  C7  UNL     1     -40.511  11.647  47.544  1.00  0.00     0.000 A 
HETATM   11  C8  UNL     1     -40.897  14.311  49.039  1.00  0.00     0.000 A 
HETATM   12  C9  UNL     1     -39.689  14.066  48.317  1.00  0.00     0.000 A 
HETATM   13  C10 UNL     1     -39.406  14.808  48.539  1.00  0.00     0.000 A 
HETATM   14  C11 UNL     1     -39.226  13.572  47.845  1.00  0.00     0.000 A 
HETATM   15  C12 UNL     1     -41.077  15.547  49.733  1.00  0.00     0.000 A 
HETATM   16  C13 UNL     1     -39.868  15.302  49.011  1.00  0.00     0.000 A 
HETATM   17  C14 UNL     1     -38.660  15.056  48.289  1.00  0.00     0.000 A 
HETATM   18  C15 UNL     1     -38.480  13.820  47.595  1.00  0.00     0.000 A 
HETATM   19  C16 UNL     1     -38.197  14.563  47.817  1.00  0.00     0.000 A 
HETATM   20  C17 UNL     1     -37.168  15.553  47.789  1.00  0.00     0.000 A 
ENDROOT
TORSDOF 32
ENDMDL
