MODEL 1
REMARK VINA RESULT:     173.3      0.000      0.000
REMARK  16 active torsions:
REMARK  status: ('A' for Active; 'I' for Inactive)
REMARK    1  A    between atoms: O3_3  and  C7_15 
REMARK    2  A    between atoms: N1_4  and  N3_6 
REMARK    3  A    between atoms: N1_4  and  C7_15 
REMARK    4  A    between atoms: N2_5  and  N4_7 
REMARK    5  A    between atoms: N3_6  and  C9_17 
REMARK    6  A    between atoms: N4_7  and  C10_18 
REMARK    7  A    between atoms: N4_7  and  N5_8 
REMARK    8  A    between atoms: N4_7  and  C7_15 
REMARK    9  A    between atoms: C2_10  and  C5_13 
REMARK   10  A    between atoms: C3_11  and  C4_12 
REMARK   11  A    between atoms: C4_12  and  C5_13 
REMARK   12  A    between atoms: C6_14  and  C8_16 
REMARK   13  A    between atoms: C6_14  and  C9_17 
REMARK   14  A    between atoms: C7_15  and  C9_17 
REMARK   15  A    between atoms: C7_15  and  C10_18 
REMARK   16  A    between atoms: C9_17  and  C10_18 
ROOT
HETATM    1  O1  UNL     1     -36.885  11.447  49.869  1.00  0.00    -0.339 OA
HETATM    2  O2  UNL     1     -35.706  12.072  50.382  1.00  0.00    -0.336 OA
HETATM    3  N1  UNL     1     -38.546  14.275  50.236  1.00  0.00     0.000 N 
HETATM    4  N2  UNL     1     -39.915  13.897  49.743  1.00  0.00     0.000 N 
HETATM    5  N3  UNL     1     -38.841  15.537  50.524  1.00  0.00     0.000 N 
HETATM    6  N5  UNL     1     -41.259  13.683  49.305  1.00  0.00    -0.135 NA
HETATM    7  C1  UNL     1     -36.918  12.820  50.263  1.00  0.00     0.165 A 
HETATM    8  C2  UNL     1     -37.334  13.527  50.355  1.00  0.00     0.106 A 
HETATM    9  C3  UNL     1     -38.131  13.568  50.144  1.00  0.00     0.075 A 
HETATM   10  C4  UNL     1     -37.300  12.153  49.961  1.00  0.00     0.148 A 
HETATM   11  C5  UNL     1     -36.122  12.779  50.473  1.00  0.00     0.167 A 
HETATM   12  C6  UNL     1     -39.335  14.396  50.051  1.00  0.00     0.023 A 
HETATM   13  C7  UNL     1     -39.518  15.180  50.230  1.00  0.00     0.018 A 
HETATM   14  C8  UNL     1     -38.240  14.978  50.528  1.00  0.00     0.010 A 
HETATM   15  C10 UNL     1     -40.678  14.182  49.613  1.00  0.00     0.077 A 
ENDROOT
BRANCH  12  16
HETATM   16  C9  UNL     1     -40.282  15.466  50.101  1.00  0.00     0.019 A 
HETATM   17  O3  UNL     1     -40.950  15.813  50.438  1.00  0.00     0.000 OA
HETATM   18  N4  UNL     1     -39.894  15.838  49.476  1.00  0.00     0.000 N 
ENDBRANCH  12  16
TORSDOF 16
ENDMDL
