MODEL 1
REMARK VINA RESULT:     348.5      0.000      0.000
REMARK WARNING: 32 MAX_TORS EXCEEDED!!!
REMARK  35 active torsions:
REMARK  status: ('A' for Active; 'I' for Inactive)
REMARK    1  A    between atoms: O1_1  and  C5_7 
REMARK    2  A    between atoms: O1_1  and  C10_12 
REMARK    3  A    between atoms: O1_1  and  C16_18 
REMARK    4  A    between atoms: O2_2  and  C18_20 
REMARK    5  A    between atoms: C1_3  and  C4_6 
REMARK    6  A    between atoms: C1_3  and  C6_8 
REMARK    7  A    between atoms: C1_3  and  C19_21 
REMARK    8  A    between atoms: C2_4  and  C5_7 
REMARK    9  A    between atoms: C2_4  and  C11_13 
REMARK   10  A    between atoms: C3_5  and  C6_8 
REMARK   11  A    between atoms: C3_5  and  C8_10 
REMARK   12  A    between atoms: C3_5  and  C14_16 
REMARK   13  A    between atoms: C4_6  and  C5_7 
REMARK   14  A    between atoms: C4_6  and  C9_11 
REMARK   15  A    between atoms: C5_7  and  C6_8 
REMARK   16  A    between atoms: C5_7  and  C8_10 
REMARK   17  A    between atoms: C5_7  and  C10_12 
REMARK   18  A    between atoms: C5_7  and  C16_18 
REMARK   19  A    between atoms: C6_8  and  C7_9 
REMARK   20  A    between atoms: C6_8  and  C10_12 
REMARK   21  A    between atoms: C6_8  and  C16_18 
REMARK   22  A    between atoms: C7_9  and  C13_15 
REMARK   23  A    between atoms: C8_10  and  C10_12 
REMARK   24  A    between atoms: C8_10  and  C11_13 
REMARK   25  A    between atoms: C9_11  and  C12_14 
REMARK   26  A    between atoms: C10_12  and  C19_21 
REMARK   27  A    between atoms: C11_13  and  C14_16 
REMARK   28  A    between atoms: C12_14  and  C13_15 
REMARK   29  A    between atoms: C12_14  and  C15_17 
REMARK   30  A    between atoms: C12_14  and  C20_22 
REMARK   31  A    between atoms: C13_15  and  C18_20 
REMARK   32  A    between atoms: C14_16  and  C19_21 
REMARK   33  A    between atoms: C15_17  and  C20_22 
REMARK   34  A    between atoms: C17_19  and  C18_20 
REMARK   35  A    between atoms: C18_20  and  C20_22 
ROOT
HETATM    1  O1  UNL     1     -36.254  14.388  50.403  1.00  0.00     0.000 OA
HETATM    2  O2  UNL     1     -41.246  10.857  50.524  1.00  0.00     0.000 OA
HETATM    3  C1  UNL     1     -37.406  14.231  50.432  1.00  0.00     0.000 A 
HETATM    4  C2  UNL     1     -38.809  13.963  50.467  1.00  0.00     0.000 A 
HETATM    5  C3  UNL     1     -38.185  14.502  50.452  1.00  0.00     0.000 A 
HETATM    6  C4  UNL     1     -38.654  13.152  50.462  1.00  0.00     0.000 A 
HETATM    7  C5  UNL     1     -37.251  13.421  50.427  1.00  0.00     0.000 A 
HETATM    8  C6  UNL     1     -37.875  12.881  50.442  1.00  0.00     0.000 A 
HETATM    9  C7  UNL     1     -39.296  12.582  50.477  1.00  0.00     0.000 A 
HETATM   10  C8  UNL     1     -36.912  14.886  50.420  1.00  0.00     0.000 A 
HETATM   11  C9  UNL     1     -39.616  14.258  50.488  1.00  0.00     0.000 A 
HETATM   12  C10 UNL     1     -36.627  13.960  50.412  1.00  0.00     0.000 A 
HETATM   13  C11 UNL     1     -38.166  15.322  50.453  1.00  0.00     0.000 A 
HETATM   14  C12 UNL     1     -40.109  12.857  50.498  1.00  0.00     0.000 A 
HETATM   15  C13 UNL     1     -40.271  13.701  50.504  1.00  0.00     0.000 A 
HETATM   16  C14 UNL     1     -37.381  15.558  50.433  1.00  0.00     0.000 A 
HETATM   17  C15 UNL     1     -39.107  11.706  50.471  1.00  0.00     0.000 A 
HETATM   18  C16 UNL     1     -36.472  13.150  50.407  1.00  0.00     0.000 A 
HETATM   19  C17 UNL     1     -39.776  11.111  50.487  1.00  0.00     0.000 A 
HETATM   20  C18 UNL     1     -40.791  12.277  50.515  1.00  0.00     0.000 A 
HETATM   21  C19 UNL     1     -36.236  15.358  50.404  1.00  0.00     0.000 A 
HETATM   22  C20 UNL     1     -40.623  11.398  50.509  1.00  0.00     0.000 A 
HETATM   23  C21 UNL     1     -35.559  15.830  50.387  1.00  0.00     0.000 A 
ENDROOT
TORSDOF 35
ENDMDL
