MODEL 1
REMARK VINA RESULT:     257.3      0.000      0.000
REMARK  28 active torsions:
REMARK  status: ('A' for Active; 'I' for Inactive)
REMARK    1  A    between atoms: O1_1  and  C8_17 
REMARK    2  A    between atoms: O2_2  and  O4_4 
REMARK    3  A    between atoms: O4_4  and  C13_22 
REMARK    4  A    between atoms: N1_6  and  C11_20 
REMARK    5  A    between atoms: N2_7  and  C3_12 
REMARK    6  A    between atoms: N2_7  and  C5_14 
REMARK    7  A    between atoms: N2_7  and  C7_16 
REMARK    8  A    between atoms: N2_7  and  C9_18 
REMARK    9  A    between atoms: N3_8  and  C12_21 
REMARK   10  A    between atoms: C1_10  and  C4_13 
REMARK   11  A    between atoms: C1_10  and  C5_14 
REMARK   12  A    between atoms: C1_10  and  C11_20 
REMARK   13  A    between atoms: C2_11  and  C3_12 
REMARK   14  A    between atoms: C2_11  and  C8_17 
REMARK   15  A    between atoms: C3_12  and  C4_13 
REMARK   16  A    between atoms: C4_13  and  C6_15 
REMARK   17  A    between atoms: C5_14  and  C6_15 
REMARK   18  A    between atoms: C5_14  and  C10_19 
REMARK   19  A    between atoms: C6_15  and  C7_16 
REMARK   20  A    between atoms: C6_15  and  C10_19 
REMARK   21  A    between atoms: C6_15  and  C12_21 
REMARK   22  A    between atoms: C7_16  and  C8_17 
REMARK   23  A    between atoms: C7_16  and  C9_18 
REMARK   24  A    between atoms: C7_16  and  C13_22 
REMARK   25  A    between atoms: C9_18  and  C13_22 
REMARK   26  A    between atoms: C10_19  and  C12_21 
REMARK   27  A    between atoms: C12_21  and  C13_22 
REMARK   28  A    between atoms: C13_22  and  C14_23 
ROOT
HETATM    1  O1  UNL     1     -37.183  13.731  50.516  1.00  0.00     0.000 OA
HETATM    2  O2  UNL     1     -38.296  12.214  50.522  1.00  0.00     0.000 OA
HETATM    3  O3  UNL     1     -39.891  15.799  50.519  1.00  0.00     0.000 OA
HETATM    4  O4  UNL     1     -39.534  12.471  50.525  1.00  0.00     0.000 OA
HETATM    5  O5  UNL     1     -37.141  11.373  50.521  1.00  0.00    -0.246 OA
HETATM    6  N1  UNL     1     -36.316  15.167  50.511  1.00  0.00    -0.276 NA
HETATM    7  N2  UNL     1     -38.289  14.956  50.516  1.00  0.00     0.000 N 
HETATM    8  N3  UNL     1     -41.079  13.141  50.528  1.00  0.00    -0.280 NA
HETATM    9  N4  UNL     1     -38.447  10.792  50.526  1.00  0.00    -0.051 NA
HETATM   10  C1  UNL     1     -36.982  14.681  50.513  1.00  0.00     0.053 A 
HETATM   11  C2  UNL     1     -37.736  14.344  50.516  1.00  0.00     0.040 A 
HETATM   12  C3  UNL     1     -37.070  15.501  50.512  1.00  0.00     0.060 A 
HETATM   13  C4  UNL     1     -37.877  15.672  50.514  1.00  0.00     0.032 A 
HETATM   14  C5  UNL     1     -38.146  13.634  50.519  1.00  0.00     0.032 A 
HETATM   15  C6  UNL     1     -39.037  14.620  50.519  1.00  0.00     0.031 A 
HETATM   16  C7  UNL     1     -38.949  13.805  50.521  1.00  0.00     0.032 A 
HETATM   17  C8  UNL     1     -37.812  12.881  50.520  1.00  0.00     0.054 A 
HETATM   18  C9  UNL     1     -39.813  14.977  50.520  1.00  0.00     0.030 A 
HETATM   19  C10 UNL     1     -39.631  13.291  50.524  1.00  0.00     0.049 A 
HETATM   20  C11 UNL     1     -36.377  13.905  50.513  1.00  0.00     0.072 A 
HETATM   21  C12 UNL     1     -40.506  14.479  50.523  1.00  0.00     0.049 A 
HETATM   22  C13 UNL     1     -40.415  13.630  50.525  1.00  0.00     0.049 A 
HETATM   23  C14 UNL     1     -41.260  14.816  50.525  1.00  0.00     0.030 A 
HETATM   24  C15 UNL     1     -37.962  11.459  50.523  1.00  0.00     0.241 A 
ENDROOT
TORSDOF 28
ENDMDL
