MODEL 1
REMARK VINA RESULT:     409.4      0.000      0.000
REMARK WARNING: 32 MAX_TORS EXCEEDED!!!
REMARK  37 active torsions:
REMARK  status: ('A' for Active; 'I' for Inactive)
REMARK    1  A    between atoms: C1_3  and  C2_4 
REMARK    2  A    between atoms: C1_3  and  C6_8 
REMARK    3  A    between atoms: C2_4  and  C5_7 
REMARK    4  A    between atoms: C3_5  and  C6_8 
REMARK    5  A    between atoms: C4_6  and  C5_7 
REMARK    6  A    between atoms: C5_7  and  C6_8 
REMARK    7  A    between atoms: C5_7  and  C7_9 
REMARK    8  A    between atoms: C5_7  and  C8_10 
REMARK    9  A    between atoms: C5_7  and  C12_14 
REMARK   10  A    between atoms: C6_8  and  C9_11 
REMARK   11  A    between atoms: C6_8  and  C10_12 
REMARK   12  A    between atoms: C6_8  and  C11_13 
REMARK   13  A    between atoms: C7_9  and  C8_10 
REMARK   14  A    between atoms: C8_10  and  C11_13 
REMARK   15  A    between atoms: C9_11  and  C10_12 
REMARK   16  A    between atoms: C10_12  and  C12_14 
REMARK   17  A    between atoms: C11_13  and  C14_16 
REMARK   18  A    between atoms: C11_13  and  C17_19 
REMARK   19  A    between atoms: C11_13  and  C19_21 
REMARK   20  A    between atoms: C12_14  and  C13_15 
REMARK   21  A    between atoms: C13_15  and  C14_16 
REMARK   22  A    between atoms: C13_15  and  C16_18 
REMARK   23  A    between atoms: C13_15  and  C19_21 
REMARK   24  A    between atoms: C14_16  and  C15_17 
REMARK   25  A    between atoms: C14_16  and  C18_20 
REMARK   26  A    between atoms: C16_18  and  C18_20 
REMARK   27  A    between atoms: C17_19  and  C18_20 
REMARK   28  A    between atoms: C17_19  and  C23_25 
REMARK   29  A    between atoms: C18_20  and  C20_22 
REMARK   30  A    between atoms: C19_21  and  C20_22 
REMARK   31  A    between atoms: C19_21  and  C22_24 
REMARK   32  A    between atoms: C20_22  and  C21_23 
REMARK   33  A    between atoms: C20_22  and  C23_25 
REMARK   34  A    between atoms: C21_23  and  C22_24 
REMARK   35  A    between atoms: C21_23  and  C24_26 
REMARK   36  A    between atoms: C22_24  and  C23_25 
REMARK   37  A    between atoms: C22_24  and  C24_26 
ROOT
HETATM    1  O1  UNL     1     -40.837  10.416  50.484  1.00  0.00    -0.327 OA
HETATM    2  O2  UNL     1     -41.122  11.816  50.526  1.00  0.00    -0.327 OA
HETATM    3  C1  UNL     1     -37.916  14.713  50.483  1.00  0.00     0.000 A 
HETATM    4  C2  UNL     1     -36.301  15.050  50.436  1.00  0.00     0.000 A 
HETATM    5  C3  UNL     1     -37.657  15.497  50.493  1.00  0.00     0.000 A 
HETATM    6  C4  UNL     1     -36.849  15.666  50.469  1.00  0.00     0.000 A 
HETATM    7  C5  UNL     1     -37.367  14.099  50.450  1.00  0.00     0.001 A 
HETATM    8  C6  UNL     1     -36.559  14.267  50.426  1.00  0.00     0.000 A 
HETATM    9  C7  UNL     1     -38.698  14.972  50.516  1.00  0.00     0.000 A 
HETATM   10  C8  UNL     1     -38.531  14.164  50.492  1.00  0.00     0.000 A 
HETATM   11  C9  UNL     1     -35.685  15.600  50.427  1.00  0.00     0.000 A 
HETATM   12  C10 UNL     1     -35.518  14.792  50.403  1.00  0.00     0.000 A 
HETATM   13  C11 UNL     1     -37.649  13.286  50.441  1.00  0.00     0.008 A 
HETATM   14  C12 UNL     1     -35.978  13.635  50.392  1.00  0.00     0.000 A 
HETATM   15  C13 UNL     1     -37.083  12.642  50.407  1.00  0.00     0.008 A 
HETATM   16  C14 UNL     1     -36.241  12.817  50.382  1.00  0.00     0.001 A 
HETATM   17  C15 UNL     1     -37.344  11.859  50.398  1.00  0.00     0.012 A 
HETATM   18  C16 UNL     1     -35.690  12.204  50.349  1.00  0.00     0.001 A 
HETATM   19  C17 UNL     1     -38.152  11.694  50.421  1.00  0.00     0.042 A 
HETATM   20  C18 UNL     1     -36.797  11.242  50.365  1.00  0.00     0.009 A 
HETATM   21  C19 UNL     1     -38.698  12.311  50.454  1.00  0.00     0.045 A 
HETATM   22  C20 UNL     1     -38.413  10.911  50.412  1.00  0.00     0.049 A 
HETATM   23  C21 UNL     1     -39.507  12.147  50.478  1.00  0.00     0.087 A 
HETATM   24  C22 UNL     1     -39.221  10.747  50.436  1.00  0.00     0.087 A 
HETATM   25  C23 UNL     1     -39.768  11.364  50.469  1.00  0.00     0.116 A 
HETATM   26  C24 UNL     1     -40.576  11.199  50.493  1.00  0.00     0.187 A 
ENDROOT
TORSDOF 37
ENDMDL
