MODEL 1
REMARK VINA RESULT:     467.8      0.000      0.000
REMARK  32 active torsions:
REMARK  status: ('A' for Active; 'I' for Inactive)
REMARK    1  A    between atoms: CL1_1  and  C12_20 
REMARK    2  A    between atoms: S1_2  and  C6_14 
REMARK    3  A    between atoms: O1_3  and  C7_15 
REMARK    4  A    between atoms: O1_3  and  C8_16 
REMARK    5  A    between atoms: O3_5  and  C13_21 
REMARK    6  A    between atoms: O4_6  and  C6_14 
REMARK    7  A    between atoms: O4_6  and  C9_17 
REMARK    8  A    between atoms: N1_7  and  C5_13 
REMARK    9  A    between atoms: N1_7  and  C3_11 
REMARK   10  A    between atoms: N1_7  and  C4_12 
REMARK   11  A    between atoms: N1_7  and  C6_14 
REMARK   12  A    between atoms: C1_9  and  C5_13 
REMARK   13  A    between atoms: C2_10  and  C3_11 
REMARK   14  A    between atoms: C2_10  and  C5_13 
REMARK   15  A    between atoms: C2_10  and  C14_22 
REMARK   16  A    between atoms: C3_11  and  C9_17 
REMARK   17  A    between atoms: C3_11  and  C13_21 
REMARK   18  A    between atoms: C4_12  and  C7_15 
REMARK   19  A    between atoms: C4_12  and  C11_19 
REMARK   20  A    between atoms: C5_13  and  C10_18 
REMARK   21  A    between atoms: C6_14  and  C9_17 
REMARK   22  A    between atoms: C6_14  and  C8_16 
REMARK   23  A    between atoms: C6_14  and  C12_20 
REMARK   24  A    between atoms: C6_14  and  C13_21 
REMARK   25  A    between atoms: C7_15  and  C10_18 
REMARK   26  A    between atoms: C7_15  and  C14_22 
REMARK   27  A    between atoms: C8_16  and  C9_17 
REMARK   28  A    between atoms: C8_16  and  C13_21 
REMARK   29  A    between atoms: C9_17  and  C12_20 
REMARK   30  A    between atoms: C10_18  and  C11_19 
REMARK   31  A    between atoms: C11_19  and  C14_22 
REMARK   32  A    between atoms: C12_20  and  C13_21 
ROOT
HETATM    1 CL1  UNL     1     -37.795  10.273  48.023  1.00  0.00    -0.236 Cl
HETATM    2  S1  UNL     1     -36.365  11.041  48.323  1.00  0.00    -0.107 SA
HETATM    3  O3  UNL     1     -36.781  10.355  48.130  1.00  0.00     0.000 OA
HETATM    4  O4  UNL     1     -35.948  11.725  48.517  1.00  0.00     0.000 OA
HETATM    5  N2  UNL     1     -35.655  10.620  48.288  1.00  0.00    -0.078 NA
HETATM    6  C9  UNL     1     -37.074  11.461  48.359  1.00  0.00     0.076 A 
HETATM    7  C13 UNL     1     -37.789  11.077  48.208  1.00  0.00     0.076 A 
ENDROOT
BRANCH   1   8
HETATM    8  C12 UNL     1     -38.498  11.498  48.244  1.00  0.00     0.069 A 
HETATM    9  C8  UNL     1     -38.516  12.267  48.540  1.00  0.00     0.059 A 
HETATM   10  C3  UNL     1     -37.850  12.583  48.911  1.00  0.00     0.058 A 
HETATM   11  C1  UNL     1     -37.868  13.353  49.207  1.00  0.00     0.053 A 
HETATM   12  C6  UNL     1     -37.166  12.128  48.987  1.00  0.00     0.070 A 
HETATM   13  O1  UNL     1     -38.605  13.191  48.870  1.00  0.00     0.000 OA
HETATM   14  C2  UNL     1     -38.126  14.105  49.408  1.00  0.00     0.045 A 
HETATM   15  C4  UNL     1     -37.506  14.491  49.790  1.00  0.00     0.059 A 
HETATM   16  C7  UNL     1     -38.846  14.492  49.293  1.00  0.00     0.030 A 
HETATM   17  N1  UNL     1     -37.094  13.272  49.463  1.00  0.00     0.000 N 
HETATM   18  C10 UNL     1     -37.604  15.265  50.058  1.00  0.00     0.043 A 
HETATM   19  C11 UNL     1     -38.944  15.267  49.561  1.00  0.00     0.028 A 
HETATM   20  C5  UNL     1     -36.870  13.974  49.823  1.00  0.00     0.094 A 
HETATM   21  O2  UNL     1     -36.133  14.133  50.159  1.00  0.00    -0.369 OA
HETATM   22  C14 UNL     1     -38.324  15.653  49.944  1.00  0.00     0.028 A 
ENDBRANCH   1   8
TORSDOF 32
ENDMDL
