MODEL 1
REMARK VINA RESULT:     342.5      0.000      0.000
REMARK  28 active torsions:
REMARK  status: ('A' for Active; 'I' for Inactive)
REMARK    1  A    between atoms: O1_1  and  N2_3 
REMARK    2  A    between atoms: O1_1  and  C3_6 
REMARK    3  A    between atoms: O1_1  and  C6_9 
REMARK    4  A    between atoms: O1_1  and  C8_11 
REMARK    5  A    between atoms: N2_3  and  C5_8 
REMARK    6  A    between atoms: N2_3  and  C6_9 
REMARK    7  A    between atoms: N2_3  and  C17_20 
REMARK    8  A    between atoms: C1_4  and  C9_12 
REMARK    9  A    between atoms: C2_5  and  C3_6 
REMARK   10  A    between atoms: C2_5  and  C13_16 
REMARK   11  A    between atoms: C3_6  and  C4_7 
REMARK   12  A    between atoms: C3_6  and  C5_8 
REMARK   13  A    between atoms: C3_6  and  C17_20 
REMARK   14  A    between atoms: C4_7  and  C7_10 
REMARK   15  A    between atoms: C4_7  and  C9_12 
REMARK   16  A    between atoms: C5_8  and  C15_18 
REMARK   17  A    between atoms: C5_8  and  C16_19 
REMARK   18  A    between atoms: C7_10  and  C8_11 
REMARK   19  A    between atoms: C7_10  and  C11_14 
REMARK   20  A    between atoms: C8_11  and  C10_13 
REMARK   21  A    between atoms: C8_11  and  C13_16 
REMARK   22  A    between atoms: C9_12  and  C16_19 
REMARK   23  A    between atoms: C10_13  and  C11_14 
REMARK   24  A    between atoms: C11_14  and  C13_16 
REMARK   25  A    between atoms: C12_15  and  C16_19 
REMARK   26  A    between atoms: C14_17  and  C15_18 
REMARK   27  A    between atoms: C15_18  and  C16_19 
REMARK   28  A    between atoms: C16_19  and  C17_20 
ROOT
HETATM    1  O1  UNL     1     -39.665  13.002  48.891  1.00  0.00     0.000 OA
HETATM    2  N1  UNL     1     -40.057  10.861  48.726  1.00  0.00    -0.006 N 
HETATM    3  N2  UNL     1     -38.945  12.175  48.306  1.00  0.00     0.000 N 
HETATM    4  C1  UNL     1     -39.098  13.552  48.654  1.00  0.00     0.023 A 
HETATM    5  C2  UNL     1     -39.526  14.153  49.023  1.00  0.00     0.003 A 
HETATM    6  C3  UNL     1     -38.669  12.952  48.286  1.00  0.00     0.025 A 
HETATM    7  C4  UNL     1     -38.530  14.103  48.418  1.00  0.00     0.003 A 
HETATM    8  C5  UNL     1     -39.577  12.206  48.690  1.00  0.00     0.173 A 
HETATM    9  C6  UNL     1     -40.145  11.656  48.927  1.00  0.00     0.242 A 
HETATM   10  C7  UNL     1     -39.250  14.930  49.003  1.00  0.00     0.002 A 
HETATM   11  C8  UNL     1     -40.232  13.978  49.413  1.00  0.00     0.002 A 
HETATM   12  C9  UNL     1     -37.963  13.127  47.896  1.00  0.00     0.006 A 
HETATM   13  C10 UNL     1     -39.678  15.530  49.371  1.00  0.00     0.000 A 
HETATM   14  C11 UNL     1     -40.660  14.578  49.781  1.00  0.00     0.000 A 
HETATM   15  C12 UNL     1     -37.535  12.527  47.528  1.00  0.00     0.005 A 
HETATM   16  C13 UNL     1     -40.384  15.355  49.760  1.00  0.00     0.000 A 
HETATM   17  C14 UNL     1     -40.625  10.311  48.963  1.00  0.00     0.247 A 
HETATM   18  C15 UNL     1     -39.403  10.616  48.289  1.00  0.00     0.219 A 
HETATM   19  C16 UNL     1     -38.517  11.575  47.938  1.00  0.00     0.050 A 
HETATM   20  C17 UNL     1     -37.812  11.750  47.548  1.00  0.00     0.005 A 
ENDROOT
TORSDOF 28
ENDMDL
MODEL 2
REMARK VINA RESULT:     343.5      1.779      3.462
REMARK  28 active torsions:
REMARK  status: ('A' for Active; 'I' for Inactive)
REMARK    1  A    between atoms: O1_1  and  N2_3 
REMARK    2  A    between atoms: O1_1  and  C3_6 
REMARK    3  A    between atoms: O1_1  and  C6_9 
REMARK    4  A    between atoms: O1_1  and  C8_11 
REMARK    5  A    between atoms: N2_3  and  C5_8 
REMARK    6  A    between atoms: N2_3  and  C6_9 
REMARK    7  A    between atoms: N2_3  and  C17_20 
REMARK    8  A    between atoms: C1_4  and  C9_12 
REMARK    9  A    between atoms: C2_5  and  C3_6 
REMARK   10  A    between atoms: C2_5  and  C13_16 
REMARK   11  A    between atoms: C3_6  and  C4_7 
REMARK   12  A    between atoms: C3_6  and  C5_8 
REMARK   13  A    between atoms: C3_6  and  C17_20 
REMARK   14  A    between atoms: C4_7  and  C7_10 
REMARK   15  A    between atoms: C4_7  and  C9_12 
REMARK   16  A    between atoms: C5_8  and  C15_18 
REMARK   17  A    between atoms: C5_8  and  C16_19 
REMARK   18  A    between atoms: C7_10  and  C8_11 
REMARK   19  A    between atoms: C7_10  and  C11_14 
REMARK   20  A    between atoms: C8_11  and  C10_13 
REMARK   21  A    between atoms: C8_11  and  C13_16 
REMARK   22  A    between atoms: C9_12  and  C16_19 
REMARK   23  A    between atoms: C10_13  and  C11_14 
REMARK   24  A    between atoms: C11_14  and  C13_16 
REMARK   25  A    between atoms: C12_15  and  C16_19 
REMARK   26  A    between atoms: C14_17  and  C15_18 
REMARK   27  A    between atoms: C15_18  and  C16_19 
REMARK   28  A    between atoms: C16_19  and  C17_20 
ROOT
HETATM    1  O1  UNL     1     -38.329  13.180  49.627  1.00  0.00     0.000 OA
HETATM    2  N1  UNL     1     -39.420  15.064  49.779  1.00  0.00    -0.006 N 
HETATM    3  N2  UNL     1     -39.363  13.473  49.003  1.00  0.00     0.000 N 
HETATM    4  C1  UNL     1     -38.377  12.462  49.222  1.00  0.00     0.023 A 
HETATM    5  C2  UNL     1     -37.692  12.203  49.601  1.00  0.00     0.003 A 
HETATM    6  C3  UNL     1     -39.062  12.722  48.843  1.00  0.00     0.025 A 
HETATM    7  C4  UNL     1     -38.425  11.745  48.817  1.00  0.00     0.003 A 
HETATM    8  C5  UNL     1     -38.899  13.764  49.500  1.00  0.00     0.173 A 
HETATM    9  C6  UNL     1     -38.851  14.481  49.905  1.00  0.00     0.242 A 
HETATM   10  C7  UNL     1     -37.390  11.452  49.441  1.00  0.00     0.002 A 
HETATM   11  C8  UNL     1     -37.307  12.693  50.141  1.00  0.00     0.002 A 
HETATM   12  C9  UNL     1     -39.446  12.231  48.303  1.00  0.00     0.006 A 
HETATM   13  C10 UNL     1     -36.706  11.192  49.820  1.00  0.00     0.000 A 
HETATM   14  C11 UNL     1     -36.623  12.434  50.520  1.00  0.00     0.000 A 
HETATM   15  C12 UNL     1     -40.131  12.491  47.924  1.00  0.00     0.005 A 
HETATM   16  C13 UNL     1     -36.321  11.683  50.360  1.00  0.00     0.000 A 
HETATM   17  C14 UNL     1     -39.372  15.782  50.184  1.00  0.00     0.247 A 
HETATM   18  C15 UNL     1     -40.037  14.931  49.249  1.00  0.00     0.219 A 
HETATM   19  C16 UNL     1     -40.048  13.732  48.624  1.00  0.00     0.050 A 
HETATM   20  C17 UNL     1     -40.432  13.241  48.084  1.00  0.00     0.005 A 
ENDROOT
TORSDOF 28
ENDMDL
