MODEL 1
REMARK VINA RESULT:      43.9      0.000      0.000
REMARK  12 active torsions:
REMARK  status: ('A' for Active; 'I' for Inactive)
REMARK    1  A    between atoms: O1_1  and  C5_8 
REMARK    2  A    between atoms: O2_2  and  C2_5 
REMARK    3  A    between atoms: N1_3  and  C8_11 
REMARK    4  A    between atoms: C1_4  and  C6_9 
REMARK    5  A    between atoms: C2_5  and  C3_6 
REMARK    6  A    between atoms: C2_5  and  C5_8 
REMARK    7  A    between atoms: C2_5  and  C6_9 
REMARK    8  A    between atoms: C2_5  and  C7_10 
REMARK    9  A    between atoms: C3_6  and  C4_7 
REMARK   10  A    between atoms: C3_6  and  C6_9 
REMARK   11  A    between atoms: C4_7  and  C5_8 
REMARK   12  A    between atoms: C5_8  and  C6_9 
ROOT
HETATM    1  O1  UNL     1     -41.274  15.536  48.839  1.00  0.00     0.000 OA
HETATM    2  O2  UNL     1     -37.706  15.565  49.284  1.00  0.00     0.000 OA
HETATM    3  N1  UNL     1     -38.431  15.566  50.514  1.00  0.00     0.000 N 
HETATM    4  C1  UNL     1     -39.141  15.558  50.095  1.00  0.00     0.000 A 
HETATM    5  C2  UNL     1     -39.134  15.554  49.271  1.00  0.00     0.000 A 
HETATM    6  C3  UNL     1     -39.859  15.555  50.502  1.00  0.00     0.000 A 
HETATM    7  C4  UNL     1     -39.845  15.547  48.852  1.00  0.00     0.000 A 
HETATM    8  C5  UNL     1     -40.570  15.548  50.084  1.00  0.00     0.000 A 
HETATM    9  C6  UNL     1     -40.563  15.543  49.258  1.00  0.00     0.000 A 
HETATM   10  C7  UNL     1     -37.712  15.569  50.109  1.00  0.00     0.000 A 
HETATM   11  C8  UNL     1     -37.001  15.577  50.527  1.00  0.00     0.000 A 
ENDROOT
TORSDOF 12
ENDMDL
