MODEL 1
REMARK VINA RESULT:     263.9      0.000      0.000
REMARK WARNING: 32 MAX_TORS EXCEEDED!!!
REMARK  42 active torsions:
REMARK  status: ('A' for Active; 'I' for Inactive)
REMARK    1  A    between atoms: O1_1  and  C6_10 
REMARK    2  A    between atoms: O3_3  and  C17_21 
REMARK    3  A    between atoms: C1_5  and  C7_11 
REMARK    4  A    between atoms: C1_5  and  C10_14 
REMARK    5  A    between atoms: C1_5  and  C12_16 
REMARK    6  A    between atoms: C1_5  and  C13_17 
REMARK    7  A    between atoms: C2_6  and  C7_11 
REMARK    8  A    between atoms: C2_6  and  C8_12 
REMARK    9  A    between atoms: C2_6  and  C9_13 
REMARK   10  A    between atoms: C2_6  and  C10_14 
REMARK   11  A    between atoms: C2_6  and  C13_17 
REMARK   12  A    between atoms: C3_7  and  C5_9 
REMARK   13  A    between atoms: C3_7  and  C6_10 
REMARK   14  A    between atoms: C3_7  and  C9_13 
REMARK   15  A    between atoms: C3_7  and  C11_15 
REMARK   16  A    between atoms: C4_8  and  C5_9 
REMARK   17  A    between atoms: C4_8  and  C6_10 
REMARK   18  A    between atoms: C4_8  and  C11_15 
REMARK   19  A    between atoms: C4_8  and  C13_17 
REMARK   20  A    between atoms: C5_9  and  C8_12 
REMARK   21  A    between atoms: C5_9  and  C6_10 
REMARK   22  A    between atoms: C5_9  and  C7_11 
REMARK   23  A    between atoms: C5_9  and  C9_13 
REMARK   24  A    between atoms: C5_9  and  C12_16 
REMARK   25  A    between atoms: C5_9  and  C15_19 
REMARK   26  A    between atoms: C6_10  and  C12_16 
REMARK   27  A    between atoms: C6_10  and  C7_11 
REMARK   28  A    between atoms: C6_10  and  C8_12 
REMARK   29  A    between atoms: C6_10  and  C16_20 
REMARK   30  A    between atoms: C6_10  and  C17_21 
REMARK   31  A    between atoms: C7_11  and  C9_13 
REMARK   32  A    between atoms: C7_11  and  C8_12 
REMARK   33  A    between atoms: C7_11  and  C15_19 
REMARK   34  A    between atoms: C8_12  and  C9_13 
REMARK   35  A    between atoms: C9_13  and  C12_16 
REMARK   36  A    between atoms: C9_13  and  C16_20 
REMARK   37  A    between atoms: C10_14  and  C11_15 
REMARK   38  A    between atoms: C11_15  and  C13_17 
REMARK   39  A    between atoms: C12_16  and  C15_19 
REMARK   40  A    between atoms: C12_16  and  C17_21 
REMARK   41  A    between atoms: C15_19  and  C16_20 
REMARK   42  A    between atoms: C16_20  and  C17_21 
ROOT
HETATM    1  O1  UNL     1     -38.422  12.561  50.452  1.00  0.00     0.000 OA
HETATM    2  O2  UNL     1     -40.366  11.670  50.513  1.00  0.00     0.000 OA
HETATM    3  O3  UNL     1     -36.432  13.045  50.437  1.00  0.00     0.000 OA
HETATM    4  N1  UNL     1     -40.368  15.468  50.086  1.00  0.00     0.000 N 
HETATM    5  C1  UNL     1     -39.272  13.596  50.318  1.00  0.00     0.000 A 
HETATM    6  C2  UNL     1     -39.897  14.129  50.246  1.00  0.00     0.000 A 
HETATM    7  C3  UNL     1     -39.743  14.935  50.158  1.00  0.00     0.000 A 
HETATM    8  C4  UNL     1     -39.426  12.789  50.406  1.00  0.00     0.000 A 
HETATM    9  C5  UNL     1     -38.858  14.242  50.254  1.00  0.00     0.000 A 
HETATM   10  C6  UNL     1     -38.493  13.868  50.303  1.00  0.00     0.000 A 
HETATM   11  C7  UNL     1     -38.964  15.208  50.143  1.00  0.00     0.000 A 
HETATM   12  C8  UNL     1     -39.245  15.342  50.123  1.00  0.00     0.000 A 
HETATM   13  C9  UNL     1     -38.340  14.673  50.216  1.00  0.00     0.000 A 
HETATM   14  C10 UNL     1     -40.204  12.517  50.421  1.00  0.00     0.000 A 
HETATM   15  C11 UNL     1     -40.676  13.857  50.261  1.00  0.00     0.000 A 
HETATM   16  C12 UNL     1     -37.868  13.334  50.376  1.00  0.00     0.000 A 
HETATM   17  C13 UNL     1     -40.829  13.052  50.348  1.00  0.00     0.000 A 
HETATM   18  C14 UNL     1     -41.163  15.813  50.031  1.00  0.00     0.000 A 
HETATM   19  C15 UNL     1     -37.561  14.946  50.201  1.00  0.00     0.000 A 
HETATM   20  C16 UNL     1     -37.090  13.606  50.361  1.00  0.00     0.000 A 
HETATM   21  C17 UNL     1     -36.936  14.412  50.273  1.00  0.00     0.000 A 
HETATM   22  C18 UNL     1     -35.614  13.331  50.421  1.00  0.00     0.000 A 
ENDROOT
TORSDOF 42
ENDMDL
