MODEL 1
REMARK VINA RESULT:     263.1      0.000      0.000
REMARK  22 active torsions:
REMARK  status: ('A' for Active; 'I' for Inactive)
REMARK    1  A    between atoms: C1_2  and  C6_7 
REMARK    2  A    between atoms: C2_3  and  C7_8 
REMARK    3  A    between atoms: C3_4  and  C5_6 
REMARK    4  A    between atoms: C4_5  and  C12_13 
REMARK    5  A    between atoms: C5_6  and  C7_8 
REMARK    6  A    between atoms: C5_6  and  C13_14 
REMARK    7  A    between atoms: C6_7  and  C9_10 
REMARK    8  A    between atoms: C6_7  and  C10_11 
REMARK    9  A    between atoms: C7_8  and  C8_9 
REMARK   10  A    between atoms: C7_8  and  C11_12 
REMARK   11  A    between atoms: C8_9  and  C12_13 
REMARK   12  A    between atoms: C8_9  and  C13_14 
REMARK   13  A    between atoms: C8_9  and  C14_15 
REMARK   14  A    between atoms: C9_10  and  C12_13 
REMARK   15  A    between atoms: C9_10  and  C20_21 
REMARK   16  A    between atoms: C10_11  and  C17_18 
REMARK   17  A    between atoms: C11_12  and  C18_19 
REMARK   18  A    between atoms: C12_13  and  C15_16 
REMARK   19  A    between atoms: C13_14  and  C16_17 
REMARK   20  A    between atoms: C15_16  and  C17_18 
REMARK   21  A    between atoms: C16_17  and  C18_19 
REMARK   22  A    between atoms: C19_20  and  C20_21 
ROOT
HETATM    1  N1  UNL     1     -36.336  13.793  50.525  1.00  0.00    -0.008 N 
HETATM    2  C1  UNL     1     -40.598  12.693  50.518  1.00  0.00     0.002 A 
HETATM    3  C2  UNL     1     -40.983  13.422  50.519  1.00  0.00     0.000 A 
HETATM    4  C3  UNL     1     -39.192  13.902  50.522  1.00  0.00     0.025 A 
HETATM    5  C4  UNL     1     -39.787  12.539  50.519  1.00  0.00     0.005 A 
HETATM    6  C5  UNL     1     -40.653  14.178  50.521  1.00  0.00     0.002 A 
HETATM    7  C6  UNL     1     -39.161  13.077  50.521  1.00  0.00     0.023 A 
HETATM    8  C7  UNL     1     -39.855  14.392  50.522  1.00  0.00     0.006 A 
HETATM    9  C8  UNL     1     -38.462  14.287  50.523  1.00  0.00     0.049 A 
HETATM   10  C9  UNL     1     -37.764  13.847  50.523  1.00  0.00     0.154 A 
HETATM   11  C10 UNL     1     -39.641  11.692  50.518  1.00  0.00     0.002 A 
HETATM   12  C11 UNL     1     -41.269  14.776  50.521  1.00  0.00     0.000 A 
HETATM   13  C12 UNL     1     -38.346  12.805  50.521  1.00  0.00     0.026 A 
HETATM   14  C13 UNL     1     -39.620  15.218  50.524  1.00  0.00     0.005 A 
HETATM   15  C14 UNL     1     -37.035  14.233  50.525  1.00  0.00     0.217 A 
HETATM   16  C15 UNL     1     -38.832  11.402  50.518  1.00  0.00     0.002 A 
HETATM   17  C16 UNL     1     -41.053  15.608  50.523  1.00  0.00     0.000 A 
HETATM   18  C17 UNL     1     -38.180  11.962  50.520  1.00  0.00     0.003 A 
HETATM   19  C18 UNL     1     -40.223  15.831  50.524  1.00  0.00     0.000 A 
HETATM   20  C19 UNL     1     -35.606  14.179  50.527  1.00  0.00     0.247 A 
HETATM   21  C20 UNL     1     -36.367  12.969  50.524  1.00  0.00     0.240 A 
ENDROOT
TORSDOF 22
ENDMDL
MODEL 2
REMARK VINA RESULT:     265.1      1.174      3.451
REMARK  22 active torsions:
REMARK  status: ('A' for Active; 'I' for Inactive)
REMARK    1  A    between atoms: C1_2  and  C6_7 
REMARK    2  A    between atoms: C2_3  and  C7_8 
REMARK    3  A    between atoms: C3_4  and  C5_6 
REMARK    4  A    between atoms: C4_5  and  C12_13 
REMARK    5  A    between atoms: C5_6  and  C7_8 
REMARK    6  A    between atoms: C5_6  and  C13_14 
REMARK    7  A    between atoms: C6_7  and  C9_10 
REMARK    8  A    between atoms: C6_7  and  C10_11 
REMARK    9  A    between atoms: C7_8  and  C8_9 
REMARK   10  A    between atoms: C7_8  and  C11_12 
REMARK   11  A    between atoms: C8_9  and  C12_13 
REMARK   12  A    between atoms: C8_9  and  C13_14 
REMARK   13  A    between atoms: C8_9  and  C14_15 
REMARK   14  A    between atoms: C9_10  and  C12_13 
REMARK   15  A    between atoms: C9_10  and  C20_21 
REMARK   16  A    between atoms: C10_11  and  C17_18 
REMARK   17  A    between atoms: C11_12  and  C18_19 
REMARK   18  A    between atoms: C12_13  and  C15_16 
REMARK   19  A    between atoms: C13_14  and  C16_17 
REMARK   20  A    between atoms: C15_16  and  C17_18 
REMARK   21  A    between atoms: C16_17  and  C18_19 
REMARK   22  A    between atoms: C19_20  and  C20_21 
ROOT
HETATM    1  N1  UNL     1     -40.524  15.137  50.484  1.00  0.00    -0.008 N 
HETATM    2  C1  UNL     1     -36.841  12.725  50.513  1.00  0.00     0.002 A 
HETATM    3  C2  UNL     1     -36.242  13.293  50.515  1.00  0.00     0.000 A 
HETATM    4  C3  UNL     1     -37.784  14.322  50.503  1.00  0.00     0.025 A 
HETATM    5  C4  UNL     1     -37.658  12.841  50.508  1.00  0.00     0.005 A 
HETATM    6  C5  UNL     1     -36.312  14.114  50.512  1.00  0.00     0.002 A 
HETATM    7  C6  UNL     1     -38.078  13.551  50.504  1.00  0.00     0.023 A 
HETATM    8  C7  UNL     1     -36.998  14.573  50.507  1.00  0.00     0.006 A 
HETATM    9  C8  UNL     1     -38.351  14.922  50.498  1.00  0.00     0.049 A 
HETATM   10  C9  UNL     1     -39.153  14.729  50.494  1.00  0.00     0.154 A 
HETATM   11  C10 UNL     1     -38.069  12.085  50.508  1.00  0.00     0.002 A 
HETATM   12  C11 UNL     1     -35.536  14.483  50.515  1.00  0.00     0.000 A 
HETATM   13  C12 UNL     1     -38.937  13.555  50.499  1.00  0.00     0.026 A 
HETATM   14  C13 UNL     1     -36.956  15.431  50.504  1.00  0.00     0.005 A 
HETATM   15  C14 UNL     1     -39.721  15.328  50.488  1.00  0.00     0.217 A 
HETATM   16  C15 UNL     1     -38.928  12.070  50.503  1.00  0.00     0.002 A 
HETATM   17  C16 UNL     1     -35.473  15.341  50.513  1.00  0.00     0.000 A 
HETATM   18  C17 UNL     1     -39.365  12.810  50.499  1.00  0.00     0.003 A 
HETATM   19  C18 UNL     1     -36.188  15.818  50.507  1.00  0.00     0.000 A 
HETATM   20  C19 UNL     1     -41.091  15.736  50.479  1.00  0.00     0.247 A 
HETATM   21  C20 UNL     1     -40.758  14.346  50.486  1.00  0.00     0.240 A 
ENDROOT
TORSDOF 22
ENDMDL
