MODEL 1
REMARK VINA RESULT:     138.6      0.000      0.000
REMARK  19 active torsions:
REMARK  status: ('A' for Active; 'I' for Inactive)
REMARK    1  A    between atoms: F1_1  and  C9_17 
REMARK    2  A    between atoms: O1_2  and  C1_9 
REMARK    3  A    between atoms: O1_2  and  C5_13 
REMARK    4  A    between atoms: O2_3  and  C4_12 
REMARK    5  A    between atoms: O4_5  and  C3_11 
REMARK    6  A    between atoms: O5_6  and  C8_16 
REMARK    7  A    between atoms: N1_7  and  N2_8 
REMARK    8  A    between atoms: N1_7  and  C8_16 
REMARK    9  A    between atoms: N2_8  and  C8_16 
REMARK   10  A    between atoms: C1_9  and  C4_12 
REMARK   11  A    between atoms: C1_9  and  C2_10 
REMARK   12  A    between atoms: C1_9  and  C5_13 
REMARK   13  A    between atoms: C2_10  and  C6_14 
REMARK   14  A    between atoms: C3_11  and  C4_12 
REMARK   15  A    between atoms: C6_14  and  C7_15 
REMARK   16  A    between atoms: C6_14  and  C8_16 
REMARK   17  A    between atoms: C6_14  and  C9_17 
REMARK   18  A    between atoms: C7_15  and  C9_17 
REMARK   19  A    between atoms: C8_16  and  C9_17 
ROOT
HETATM    1  F1  UNL     1     -41.136  14.146  50.491  1.00  0.00    -0.472 F 
HETATM    2  O1  UNL     1     -38.196  13.310  50.498  1.00  0.00     0.000 OA
HETATM    3  O2  UNL     1     -36.153  13.927  50.501  1.00  0.00     0.000 OA
HETATM    4  O3  UNL     1     -37.547  11.713  50.504  1.00  0.00    -0.359 OA
HETATM    5  O4  UNL     1     -38.269  15.780  50.492  1.00  0.00     0.000 OA
HETATM    6  O5  UNL     1     -41.127  15.796  50.487  1.00  0.00     0.000 OA
HETATM    7  N1  UNL     1     -38.990  14.547  50.494  1.00  0.00     0.000 N 
HETATM    8  N2  UNL     1     -39.699  15.788  50.490  1.00  0.00     0.000 N 
HETATM    9  C1  UNL     1     -36.975  13.845  50.499  1.00  0.00     0.057 A 
HETATM   10  C2  UNL     1     -38.278  14.130  50.496  1.00  0.00     0.057 A 
HETATM   11  C3  UNL     1     -37.523  14.461  50.497  1.00  0.00     0.035 A 
HETATM   12  C4  UNL     1     -37.391  13.134  50.500  1.00  0.00     0.102 A 
HETATM   13  C5  UNL     1     -37.059  12.378  50.503  1.00  0.00     0.140 A 
HETATM   14  C6  UNL     1     -38.986  15.372  50.492  1.00  0.00     0.083 A 
HETATM   15  C7  UNL     1     -39.707  14.139  50.494  1.00  0.00     0.107 A 
HETATM   16  C8  UNL     1     -40.419  14.555  50.491  1.00  0.00     0.125 A 
HETATM   17  C9  UNL     1     -40.415  15.380  50.489  1.00  0.00     0.125 A 
ENDROOT
TORSDOF 19
ENDMDL
