MODEL 1
REMARK VINA RESULT:     187.4      0.000      0.000
REMARK  19 active torsions:
REMARK  status: ('A' for Active; 'I' for Inactive)
REMARK    1  A    between atoms: O1_1  and  C3_12 
REMARK    2  A    between atoms: O1_1  and  C5_14 
REMARK    3  A    between atoms: O2_2  and  N3_7 
REMARK    4  A    between atoms: O2_2  and  C3_12 
REMARK    5  A    between atoms: O3_3  and  C4_13 
REMARK    6  A    between atoms: N1_5  and  C8_17 
REMARK    7  A    between atoms: N2_6  and  C6_15 
REMARK    8  A    between atoms: N2_6  and  C9_18 
REMARK    9  A    between atoms: N3_7  and  N4_8 
REMARK   10  A    between atoms: N4_8  and  C8_17 
REMARK   11  A    between atoms: N5_9  and  C8_17 
REMARK   12  A    between atoms: C1_10  and  C4_13 
REMARK   13  A    between atoms: C2_11  and  C3_12 
REMARK   14  A    between atoms: C3_12  and  C4_13 
REMARK   15  A    between atoms: C3_12  and  C5_14 
REMARK   16  A    between atoms: C6_15  and  C7_16 
REMARK   17  A    between atoms: C6_15  and  C9_18 
REMARK   18  A    between atoms: C8_17  and  C9_18 
REMARK   19  A    between atoms: C8_17  and  C10_19 
ROOT
HETATM    1  O1  UNL     1     -37.284  14.474  50.242  1.00  0.00     0.000 OA
HETATM    2  O2  UNL     1     -38.771  12.967  50.527  1.00  0.00     0.000 OA
HETATM    3  O3  UNL     1     -37.079  12.368  50.526  1.00  0.00     0.000 OA
HETATM    4  O4  UNL     1     -35.563  14.469  50.156  1.00  0.00    -0.359 OA
HETATM    5  N1  UNL     1     -38.728  14.745  50.277  1.00  0.00     0.000 N 
HETATM    6  N2  UNL     1     -39.481  15.833  50.162  1.00  0.00     0.000 N 
HETATM    7  N3  UNL     1     -39.867  13.781  50.469  1.00  0.00     0.000 N 
HETATM    8  N4  UNL     1     -41.156  14.398  50.447  1.00  0.00     0.000 N 
HETATM    9  N5  UNL     1     -41.270  15.809  50.256  1.00  0.00    -0.222 NA
HETATM   10  C1  UNL     1     -38.093  13.428  50.429  1.00  0.00     0.032 A 
HETATM   11  C2  UNL     1     -38.073  14.245  50.314  1.00  0.00     0.032 A 
HETATM   12  C3  UNL     1     -37.315  13.152  50.428  1.00  0.00     0.055 A 
HETATM   13  C4  UNL     1     -36.816  13.797  50.313  1.00  0.00     0.100 A 
HETATM   14  C5  UNL     1     -35.992  13.774  50.275  1.00  0.00     0.140 A 
HETATM   15  C6  UNL     1     -39.513  14.517  50.348  1.00  0.00     0.032 A 
HETATM   16  C7  UNL     1     -38.709  15.556  50.162  1.00  0.00     0.020 A 
HETATM   17  C8  UNL     1     -39.981  15.193  50.277  1.00  0.00     0.063 A 
HETATM   18  C9  UNL     1     -40.802  15.133  50.327  1.00  0.00     0.074 A 
HETATM   19  C10 UNL     1     -40.689  13.722  50.518  1.00  0.00     0.034 A 
ENDROOT
TORSDOF 19
ENDMDL
MODEL 2
REMARK VINA RESULT:     189.8      2.388      4.023
REMARK  19 active torsions:
REMARK  status: ('A' for Active; 'I' for Inactive)
REMARK    1  A    between atoms: O1_1  and  C3_12 
REMARK    2  A    between atoms: O1_1  and  C5_14 
REMARK    3  A    between atoms: O2_2  and  N3_7 
REMARK    4  A    between atoms: O2_2  and  C3_12 
REMARK    5  A    between atoms: O3_3  and  C4_13 
REMARK    6  A    between atoms: N1_5  and  C8_17 
REMARK    7  A    between atoms: N2_6  and  C6_15 
REMARK    8  A    between atoms: N2_6  and  C9_18 
REMARK    9  A    between atoms: N3_7  and  N4_8 
REMARK   10  A    between atoms: N4_8  and  C8_17 
REMARK   11  A    between atoms: N5_9  and  C8_17 
REMARK   12  A    between atoms: C1_10  and  C4_13 
REMARK   13  A    between atoms: C2_11  and  C3_12 
REMARK   14  A    between atoms: C3_12  and  C4_13 
REMARK   15  A    between atoms: C3_12  and  C5_14 
REMARK   16  A    between atoms: C6_15  and  C7_16 
REMARK   17  A    between atoms: C6_15  and  C9_18 
REMARK   18  A    between atoms: C8_17  and  C9_18 
REMARK   19  A    between atoms: C8_17  and  C10_19 
ROOT
HETATM    1  O1  UNL     1     -39.689  15.380  49.756  1.00  0.00     0.000 OA
HETATM    2  O2  UNL     1     -38.832  15.390  47.801  1.00  0.00     0.000 OA
HETATM    3  O3  UNL     1     -40.617  15.206  47.841  1.00  0.00     0.000 OA
HETATM    4  O4  UNL     1     -41.294  15.239  50.369  1.00  0.00    -0.359 OA
HETATM    5  N1  UNL     1     -38.250  15.519  49.494  1.00  0.00     0.000 N 
HETATM    6  N2  UNL     1     -37.169  15.662  50.252  1.00  0.00     0.000 N 
HETATM    7  N3  UNL     1     -37.526  15.541  48.176  1.00  0.00     0.000 N 
HETATM    8  N4  UNL     1     -36.110  15.693  48.297  1.00  0.00     0.000 N 
HETATM    9  N5  UNL     1     -35.512  15.807  49.588  1.00  0.00    -0.222 NA
HETATM   10  C1  UNL     1     -39.302  15.368  48.479  1.00  0.00     0.032 A 
HETATM   11  C2  UNL     1     -39.035  15.428  49.257  1.00  0.00     0.032 A 
HETATM   12  C3  UNL     1     -40.123  15.284  48.497  1.00  0.00     0.055 A 
HETATM   13  C4  UNL     1     -40.362  15.291  49.286  1.00  0.00     0.100 A 
HETATM   14  C5  UNL     1     -41.138  15.222  49.559  1.00  0.00     0.140 A 
HETATM   15  C6  UNL     1     -37.599  15.567  48.998  1.00  0.00     0.032 A 
HETATM   16  C7  UNL     1     -37.985  15.578  50.268  1.00  0.00     0.020 A 
HETATM   17  C8  UNL     1     -36.927  15.656  49.469  1.00  0.00     0.063 A 
HETATM   18  C9  UNL     1     -36.183  15.719  49.117  1.00  0.00     0.074 A 
HETATM   19  C10 UNL     1     -36.782  15.604  47.826  1.00  0.00     0.034 A 
ENDROOT
TORSDOF 19
ENDMDL
