MODEL 1
REMARK VINA RESULT:     272.0      0.000      0.000
REMARK  27 active torsions:
REMARK  status: ('A' for Active; 'I' for Inactive)
REMARK    1  A    between atoms: CL1_1  and  C10_15 
REMARK    2  A    between atoms: N1_2  and  N3_4 
REMARK    3  A    between atoms: N1_2  and  N4_5 
REMARK    4  A    between atoms: N1_2  and  C5_10 
REMARK    5  A    between atoms: N2_3  and  C4_9 
REMARK    6  A    between atoms: N3_4  and  C5_10 
REMARK    7  A    between atoms: C1_6  and  C3_8 
REMARK    8  A    between atoms: C2_7  and  C6_11 
REMARK    9  A    between atoms: C2_7  and  C7_12 
REMARK   10  A    between atoms: C2_7  and  C11_16 
REMARK   11  A    between atoms: C2_7  and  C13_18 
REMARK   12  A    between atoms: C3_8  and  C8_13 
REMARK   13  A    between atoms: C4_9  and  C5_10 
REMARK   14  A    between atoms: C4_9  and  C9_14 
REMARK   15  A    between atoms: C6_11  and  C8_13 
REMARK   16  A    between atoms: C6_11  and  C16_21 
REMARK   17  A    between atoms: C7_12  and  C9_14 
REMARK   18  A    between atoms: C7_12  and  C11_16 
REMARK   19  A    between atoms: C8_13  and  C10_15 
REMARK   20  A    between atoms: C8_13  and  C13_18 
REMARK   21  A    between atoms: C10_15  and  C11_16 
REMARK   22  A    between atoms: C12_17  and  C13_18 
REMARK   23  A    between atoms: C12_17  and  C15_20 
REMARK   24  A    between atoms: C13_18  and  C14_19 
REMARK   25  A    between atoms: C13_18  and  C16_21 
REMARK   26  A    between atoms: C14_19  and  C15_20 
REMARK   27  A    between atoms: C15_20  and  C16_21 
ROOT
HETATM    1 CL1  UNL     1     -39.774  11.621  48.376  1.00  0.00    -0.251 Cl
HETATM    2  N1  UNL     1     -40.520  14.639  49.625  1.00  0.00     0.000 N 
HETATM    3  N2  UNL     1     -38.835  14.515  50.389  1.00  0.00     0.000 N 
HETATM    4  N3  UNL     1     -40.630  15.828  50.208  1.00  0.00     0.000 N 
HETATM    5  N4  UNL     1     -41.321  15.684  49.790  1.00  0.00     0.335 N 
HETATM    6  C1  UNL     1     -40.252  13.904  49.363  1.00  0.00     0.076 A 
HETATM    7  C2  UNL     1     -39.532  13.532  49.519  1.00  0.00     0.027 A 
HETATM    8  C3  UNL     1     -38.901  13.804  49.976  1.00  0.00     0.017 A 
HETATM    9  C4  UNL     1     -40.133  15.184  50.108  1.00  0.00     0.260 A 
HETATM   10  C5  UNL     1     -39.383  15.130  50.448  1.00  0.00     0.037 A 
HETATM   11  C6  UNL     1     -38.251  13.299  50.026  1.00  0.00     0.010 A 
HETATM   12  C7  UNL     1     -40.845  13.526  48.869  1.00  0.00     0.059 A 
HETATM   13  C8  UNL     1     -39.354  12.758  49.192  1.00  0.00     0.036 A 
HETATM   14  C9  UNL     1     -41.253  14.950  49.431  1.00  0.00     0.262 A 
HETATM   15  C10 UNL     1     -40.685  12.751  48.532  1.00  0.00     0.057 A 
HETATM   16  C11 UNL     1     -39.935  12.364  48.695  1.00  0.00     0.054 A 
HETATM   17  C12 UNL     1     -37.590  13.519  50.469  1.00  0.00     0.003 A 
HETATM   18  C13 UNL     1     -38.260  12.574  49.633  1.00  0.00     0.010 A 
HETATM   19  C14 UNL     1     -36.940  13.014  50.519  1.00  0.00     0.002 A 
HETATM   20  C15 UNL     1     -37.610  12.069  49.683  1.00  0.00     0.002 A 
HETATM   21  C16 UNL     1     -36.950  12.289  50.126  1.00  0.00     0.002 A 
ENDROOT
TORSDOF 27
ENDMDL
