MODEL 1
REMARK VINA RESULT:     311.2      0.000      0.000
REMARK WARNING: 32 MAX_TORS EXCEEDED!!!
REMARK  33 active torsions:
REMARK  status: ('A' for Active; 'I' for Inactive)
REMARK    1  A    between atoms: CL1_1  and  C17_23 
REMARK    2  A    between atoms: O1_2  and  C11_17 
REMARK    3  A    between atoms: O4_5  and  C2_8 
REMARK    4  A    between atoms: O4_5  and  C6_12 
REMARK    5  A    between atoms: N1_6  and  C1_7 
REMARK    6  A    between atoms: N1_6  and  C12_18 
REMARK    7  A    between atoms: C1_7  and  C8_14 
REMARK    8  A    between atoms: C1_7  and  C13_19 
REMARK    9  A    between atoms: C2_8  and  C7_13 
REMARK   10  A    between atoms: C2_8  and  C10_16 
REMARK   11  A    between atoms: C2_8  and  C11_17 
REMARK   12  A    between atoms: C3_9  and  C6_12 
REMARK   13  A    between atoms: C3_9  and  C9_15 
REMARK   14  A    between atoms: C3_9  and  C10_16 
REMARK   15  A    between atoms: C4_10  and  C5_11 
REMARK   16  A    between atoms: C4_10  and  C9_15 
REMARK   17  A    between atoms: C4_10  and  C15_21 
REMARK   18  A    between atoms: C6_12  and  C7_13 
REMARK   19  A    between atoms: C6_12  and  C11_17 
REMARK   20  A    between atoms: C7_13  and  C10_16 
REMARK   21  A    between atoms: C8_14  and  C12_18 
REMARK   22  A    between atoms: C8_14  and  C15_21 
REMARK   23  A    between atoms: C8_14  and  C17_23 
REMARK   24  A    between atoms: C10_16  and  C11_17 
REMARK   25  A    between atoms: C11_17  and  C19_25 
REMARK   26  A    between atoms: C12_18  and  C18_24 
REMARK   27  A    between atoms: C14_20  and  C15_21 
REMARK   28  A    between atoms: C14_20  and  C17_23 
REMARK   29  A    between atoms: C14_20  and  C18_24 
REMARK   30  A    between atoms: C15_21  and  C16_22 
REMARK   31  A    between atoms: C15_21  and  C18_24 
REMARK   32  A    between atoms: C16_22  and  C17_23 
REMARK   33  A    between atoms: C17_23  and  C18_24 
ROOT
HETATM    1 CL1  UNL     1     -41.315  10.316  47.702  1.00  0.00    -0.252 Cl
HETATM    2  O1  UNL     1     -37.794  15.779  50.452  1.00  0.00     0.000 OA
HETATM    3  O2  UNL     1     -38.270  12.293  48.759  1.00  0.00     0.000 OA
HETATM    4  O3  UNL     1     -41.315  15.810  50.345  1.00  0.00    -0.359 OA
HETATM    5  O4  UNL     1     -39.897  15.643  50.314  1.00  0.00     0.000 OA
HETATM    6  N1  UNL     1     -39.319  13.182  49.150  1.00  0.00     0.000 N 
HETATM    7  C1  UNL     1     -40.086  14.169  49.598  1.00  0.00     0.044 A 
HETATM    8  C2  UNL     1     -39.303  14.379  49.727  1.00  0.00     0.022 A 
HETATM    9  C3  UNL     1     -38.827  13.766  49.448  1.00  0.00     0.008 A 
HETATM   10  C4  UNL     1     -40.095  13.430  49.242  1.00  0.00     0.027 A 
HETATM   11  C5  UNL     1     -40.748  14.621  49.792  1.00  0.00     0.099 A 
HETATM   12  C6  UNL     1     -38.959  15.051  50.061  1.00  0.00     0.006 A 
HETATM   13  C7  UNL     1     -38.006  13.825  49.505  1.00  0.00     0.003 A 
HETATM   14  C8  UNL     1     -40.768  13.009  49.016  1.00  0.00     0.021 A 
HETATM   15  C9  UNL     1     -39.075  12.468  48.815  1.00  0.00     0.011 A 
HETATM   16  C10 UNL     1     -38.138  15.108  50.118  1.00  0.00     0.003 A 
HETATM   17  C11 UNL     1     -37.661  14.495  49.839  1.00  0.00     0.003 A 
HETATM   18  C12 UNL     1     -39.634  11.930  48.537  1.00  0.00     0.030 A 
HETATM   19  C13 UNL     1     -40.653  15.358  50.150  1.00  0.00     0.139 A 
HETATM   20  C14 UNL     1     -39.391  11.216  48.202  1.00  0.00     0.032 A 
HETATM   21  C15 UNL     1     -40.439  12.106  48.593  1.00  0.00     0.030 A 
HETATM   22  C16 UNL     1     -39.951  10.678  47.924  1.00  0.00     0.047 A 
HETATM   23  C17 UNL     1     -40.998  11.568  48.315  1.00  0.00     0.041 A 
HETATM   24  C18 UNL     1     -40.755  10.854  47.980  1.00  0.00     0.047 A 
HETATM   25  C19 UNL     1     -36.972  15.836  50.509  1.00  0.00     0.000 A 
ENDROOT
TORSDOF 33
ENDMDL
