MODEL 1
REMARK VINA RESULT:     118.7      0.000      0.000
REMARK  9 active torsions:
REMARK  status: ('A' for Active; 'I' for Inactive)
REMARK    1  A    between atoms: O1_1  and  C4_12 
REMARK    2  A    between atoms: O1_1  and  C5_13 
REMARK    3  A    between atoms: N1_5  and  C4_12 
REMARK    4  A    between atoms: N2_6  and  C1_9 
REMARK    5  A    between atoms: N3_7  and  N4_8 
REMARK    6  A    between atoms: C1_9  and  C5_13 
REMARK    7  A    between atoms: C2_10  and  C3_11 
REMARK    8  A    between atoms: C2_10  and  C5_13 
REMARK    9  A    between atoms: C3_11  and  C4_12 
ROOT
HETATM    1  O1  UNL     1     -39.566  14.507  49.753  1.00  0.00     0.000 OA
HETATM    2  O2  UNL     1     -41.327  15.838  49.818  1.00  0.00    -0.101 OA
HETATM    3  O3  UNL     1     -41.239  14.494  49.339  1.00  0.00    -0.101 OA
HETATM    4  N1  UNL     1     -40.881  15.159  49.674  1.00  0.00     0.262 N 
HETATM    5  C1  UNL     1     -38.819  14.732  50.019  1.00  0.00     0.310 A 
HETATM    6  C2  UNL     1     -38.869  15.507  50.296  1.00  0.00     0.184 A 
HETATM    7  C3  UNL     1     -40.079  15.143  49.864  1.00  0.00     0.406 A 
HETATM    8  C4  UNL     1     -39.648  15.761  50.200  1.00  0.00     0.344 A 
ENDROOT
BRANCH   1   9
HETATM    9  C5  UNL     1     -38.139  14.264  50.011  1.00  0.00     0.269 A 
HETATM   10  N2  UNL     1     -37.543  13.707  50.132  1.00  0.00     0.162 N 
HETATM   11  N3  UNL     1     -36.767  13.956  50.262  1.00  0.00     0.000 N 
HETATM   12  C6  UNL     1     -36.171  13.399  50.383  1.00  0.00     0.360 A 
HETATM   13  O4  UNL     1     -36.351  12.592  50.374  1.00  0.00     0.000 OA
HETATM   14  N4  UNL     1     -35.395  13.645  50.513  1.00  0.00    -0.095 NA
ENDBRANCH   1   9
TORSDOF 9
ENDMDL
