MODEL 1
REMARK VINA RESULT:     402.3      0.000      0.000
REMARK  19 active torsions:
REMARK  status: ('A' for Active; 'I' for Inactive)
REMARK    1  A    between atoms: C2_3  and  C8_9 
REMARK    2  A    between atoms: C2_3  and  C9_10 
REMARK    3  A    between atoms: C2_3  and  C10_11 
REMARK    4  A    between atoms: C3_4  and  C4_5 
REMARK    5  A    between atoms: C4_5  and  C5_6 
REMARK    6  A    between atoms: C5_6  and  C10_11 
REMARK    7  A    between atoms: C6_7  and  C9_10 
REMARK    8  A    between atoms: C6_7  and  C12_13 
REMARK    9  A    between atoms: C7_8  and  C10_11 
REMARK   10  A    between atoms: C7_8  and  C11_12 
REMARK   11  A    between atoms: C9_10  and  C17_18 
REMARK   12  A    between atoms: C10_11  and  C18_19 
REMARK   13  A    between atoms: C11_12  and  C12_13 
REMARK   14  A    between atoms: C11_12  and  C13_14 
REMARK   15  A    between atoms: C12_13  and  C14_15 
REMARK   16  A    between atoms: C13_14  and  C15_16 
REMARK   17  A    between atoms: C14_15  and  C16_17 
REMARK   18  A    between atoms: C15_16  and  C17_18 
REMARK   19  A    between atoms: C16_17  and  C18_19 
ROOT
HETATM    1  N1  UNL     1     -37.866  11.000  47.720  1.00  0.00    -0.275 NA
HETATM    2  C1  UNL     1     -37.975  13.782  48.365  1.00  0.00     0.012 A 
HETATM    3  C2  UNL     1     -38.341  13.043  48.322  1.00  0.00     0.023 A 
HETATM    4  C3  UNL     1     -38.444  14.397  48.651  1.00  0.00     0.004 A 
HETATM    5  C4  UNL     1     -37.189  13.807  48.115  1.00  0.00     0.011 A 
HETATM    6  C5  UNL     1     -37.920  12.391  48.042  1.00  0.00     0.040 A 
HETATM    7  C6  UNL     1     -38.242  15.189  48.759  1.00  0.00     0.001 A 
HETATM    8  C7  UNL     1     -36.678  14.454  48.090  1.00  0.00     0.003 A 
HETATM    9  C8  UNL     1     -38.286  11.653  47.999  1.00  0.00     0.071 A 
HETATM   10  C9  UNL     1     -39.230  14.111  48.844  1.00  0.00     0.003 A 
HETATM   11  C10 UNL     1     -36.929  13.029  47.860  1.00  0.00     0.012 A 
HETATM   12  C11 UNL     1     -37.522  15.562  48.607  1.00  0.00     0.000 A 
HETATM   13  C12 UNL     1     -36.826  15.235  48.309  1.00  0.00     0.001 A 
HETATM   14  C13 UNL     1     -38.814  15.751  49.068  1.00  0.00     0.000 A 
HETATM   15  C14 UNL     1     -35.871  14.367  47.809  1.00  0.00     0.001 A 
HETATM   16  C15 UNL     1     -39.815  14.659  49.154  1.00  0.00     0.000 A 
HETATM   17  C16 UNL     1     -36.125  12.924  47.576  1.00  0.00     0.002 A 
HETATM   18  C17 UNL     1     -39.605  15.485  49.267  1.00  0.00     0.000 A 
HETATM   19  C18 UNL     1     -35.592  13.598  47.550  1.00  0.00     0.001 A 
HETATM   20  C19 UNL     1     -38.231  10.262  47.677  1.00  0.00     0.088 A 
ENDROOT
TORSDOF 19
ENDMDL
