MODEL 1
REMARK VINA RESULT:      25.3      0.000      0.000
REMARK  7 active torsions:
REMARK  status: ('A' for Active; 'I' for Inactive)
REMARK    1  A    between atoms: O1_1  and  N1_4 
REMARK    2  A    between atoms: O2_2  and  C3_7 
REMARK    3  A    between atoms: N1_4  and  C5_9 
REMARK    4  A    between atoms: C2_6  and  C4_8 
REMARK    5  A    between atoms: C2_6  and  C5_9 
REMARK    6  A    between atoms: C3_7  and  C4_8 
REMARK    7  A    between atoms: C5_9  and  C6_10 
ROOT
HETATM    1  O1  UNL     1     -39.877  15.748  48.588  1.00  0.00     0.000 OA
HETATM    2  O2  UNL     1     -40.773  15.654  50.524  1.00  0.00     0.000 OA
HETATM    3  O3  UNL     1     -38.427  15.832  48.821  1.00  0.00    -0.303 OA
HETATM    4  N1  UNL     1     -39.465  15.748  49.858  1.00  0.00     0.000 N 
HETATM    5  C1  UNL     1     -40.544  15.698  49.072  1.00  0.00     0.052 A 
HETATM    6  C2  UNL     1     -40.289  15.697  49.857  1.00  0.00     0.053 A 
HETATM    7  C3  UNL     1     -41.326  15.645  49.326  1.00  0.00     0.014 A 
HETATM    8  C4  UNL     1     -41.027  15.682  48.404  1.00  0.00     0.014 A 
HETATM    9  C5  UNL     1     -39.211  15.779  49.074  1.00  0.00     0.106 A 
HETATM   10  C6  UNL     1     -38.981  15.764  50.526  1.00  0.00     0.064 A 
ENDROOT
TORSDOF 7
ENDMDL
