MODEL 1
REMARK VINA RESULT:     237.5      0.000      0.000
REMARK WARNING: 32 MAX_TORS EXCEEDED!!!
REMARK  38 active torsions:
REMARK  status: ('A' for Active; 'I' for Inactive)
REMARK    1  A    between atoms: F2_2  and  C11_20 
REMARK    2  A    between atoms: F2_2  and  C13_22 
REMARK    3  A    between atoms: F3_3  and  C11_20 
REMARK    4  A    between atoms: F3_3  and  C12_21 
REMARK    5  A    between atoms: O1_4  and  C3_12 
REMARK    6  A    between atoms: O1_4  and  C8_17 
REMARK    7  A    between atoms: O1_4  and  C10_19 
REMARK    8  A    between atoms: O1_4  and  C13_22 
REMARK    9  A    between atoms: O2_5  and  C4_13 
REMARK   10  A    between atoms: O3_6  and  N1_9 
REMARK   11  A    between atoms: N1_9  and  C8_17 
REMARK   12  A    between atoms: C1_10  and  C2_11 
REMARK   13  A    between atoms: C1_10  and  C3_12 
REMARK   14  A    between atoms: C1_10  and  C4_13 
REMARK   15  A    between atoms: C1_10  and  C8_17 
REMARK   16  A    between atoms: C1_10  and  C10_19 
REMARK   17  A    between atoms: C2_11  and  C6_15 
REMARK   18  A    between atoms: C3_12  and  C6_15 
REMARK   19  A    between atoms: C4_13  and  C6_15 
REMARK   20  A    between atoms: C4_13  and  C5_14 
REMARK   21  A    between atoms: C5_14  and  C6_15 
REMARK   22  A    between atoms: C5_14  and  C7_16 
REMARK   23  A    between atoms: C5_14  and  C8_17 
REMARK   24  A    between atoms: C5_14  and  C10_19 
REMARK   25  A    between atoms: C6_15  and  C7_16 
REMARK   26  A    between atoms: C7_16  and  C9_18 
REMARK   27  A    between atoms: C8_17  and  C9_18 
REMARK   28  A    between atoms: C8_17  and  C11_20 
REMARK   29  A    between atoms: C8_17  and  C12_21 
REMARK   30  A    between atoms: C9_18  and  C10_19 
REMARK   31  A    between atoms: C9_18  and  C13_22 
REMARK   32  A    between atoms: C10_19  and  C11_20 
REMARK   33  A    between atoms: C10_19  and  C12_21 
REMARK   34  A    between atoms: C11_20  and  C13_22 
REMARK   35  A    between atoms: C11_20  and  C14_23 
REMARK   36  A    between atoms: C12_21  and  C13_22 
REMARK   37  A    between atoms: C12_21  and  C14_23 
REMARK   38  A    between atoms: C13_22  and  C14_23 
ROOT
HETATM    1  F1  UNL     1     -35.660  13.832  47.762  1.00  0.00    -0.272 F 
HETATM    2  F2  UNL     1     -36.796  13.610  47.607  1.00  0.00    -0.382 F 
HETATM    3  F3  UNL     1     -35.927  14.620  48.580  1.00  0.00    -0.382 F 
HETATM    4  C14 UNL     1     -36.361  14.115  48.094  1.00  0.00     0.255 A 
ENDROOT
BRANCH   4   5
HETATM    5  C11 UNL     1     -37.060  14.398  48.425  1.00  0.00     0.167 A 
HETATM    6  C12 UNL     1     -37.039  14.833  49.126  1.00  0.00     0.177 A 
HETATM    7  C9  UNL     1     -37.739  15.116  49.458  1.00  0.00     0.165 A 
HETATM    8  N1  UNL     1     -37.717  15.550  50.158  1.00  0.00     0.000 N 
HETATM    9  O4  UNL     1     -36.995  15.702  50.528  1.00  0.00    -0.222 OA
HETATM   10  O5  UNL     1     -38.418  15.834  50.490  1.00  0.00     0.000 OA
HETATM   11  O3  UNL     1     -39.140  15.683  50.121  1.00  0.00     0.000 OA
HETATM   12  C7  UNL     1     -39.162  15.249  49.421  1.00  0.00     0.047 A 
HETATM   13  C1  UNL     1     -39.884  15.097  49.051  1.00  0.00     0.022 A 
HETATM   14  C8  UNL     1     -38.461  14.965  49.088  1.00  0.00     0.108 A 
HETATM   15  C5  UNL     1     -39.906  14.663  48.350  1.00  0.00     0.022 A 
HETATM   16  C6  UNL     1     -40.584  15.380  49.382  1.00  0.00     0.004 A 
HETATM   17  O1  UNL     1     -39.205  14.379  48.018  1.00  0.00     0.000 OA
HETATM   18  O2  UNL     1     -40.562  15.815  50.084  1.00  0.00     0.000 OA
HETATM   19  C3  UNL     1     -40.628  14.511  47.980  1.00  0.00     0.002 A 
HETATM   20  C2  UNL     1     -41.328  14.795  48.312  1.00  0.00     0.002 A 
HETATM   21  C4  UNL     1     -41.306  15.230  49.014  1.00  0.00     0.002 A 
HETATM   22  C10 UNL     1     -38.483  14.530  48.387  1.00  0.00     0.108 A 
HETATM   23  C13 UNL     1     -37.783  14.247  48.056  1.00  0.00     0.177 A 
ENDBRANCH   4   5
TORSDOF 38
ENDMDL
