MODEL 1
REMARK VINA RESULT:     248.6      0.000      0.000
REMARK  29 active torsions:
REMARK  status: ('A' for Active; 'I' for Inactive)
REMARK    1  A    between atoms: CL1_1  and  C11_16 
REMARK    2  A    between atoms: O1_2  and  C6_11 
REMARK    3  A    between atoms: O1_2  and  C12_17 
REMARK    4  A    between atoms: O2_3  and  C3_8 
REMARK    5  A    between atoms: O2_3  and  C9_14 
REMARK    6  A    between atoms: N1_4  and  C3_8 
REMARK    7  A    between atoms: N2_5  and  C3_8 
REMARK    8  A    between atoms: C1_6  and  C8_13 
REMARK    9  A    between atoms: C1_6  and  C10_15 
REMARK   10  A    between atoms: C1_6  and  C13_18 
REMARK   11  A    between atoms: C2_7  and  C7_12 
REMARK   12  A    between atoms: C3_8  and  C5_10 
REMARK   13  A    between atoms: C4_9  and  C5_10 
REMARK   14  A    between atoms: C4_9  and  C6_11 
REMARK   15  A    between atoms: C4_9  and  C12_17 
REMARK   16  A    between atoms: C5_10  and  C9_14 
REMARK   17  A    between atoms: C6_11  and  C7_12 
REMARK   18  A    between atoms: C6_11  and  C16_21 
REMARK   19  A    between atoms: C7_12  and  C11_16 
REMARK   20  A    between atoms: C7_12  and  C13_18 
REMARK   21  A    between atoms: C8_13  and  C9_14 
REMARK   22  A    between atoms: C8_13  and  C10_15 
REMARK   23  A    between atoms: C10_15  and  C11_16 
REMARK   24  A    between atoms: C12_17  and  C13_18 
REMARK   25  A    between atoms: C12_17  and  C15_20 
REMARK   26  A    between atoms: C13_18  and  C14_19 
REMARK   27  A    between atoms: C13_18  and  C16_21 
REMARK   28  A    between atoms: C14_19  and  C15_20 
REMARK   29  A    between atoms: C15_20  and  C16_21 
ROOT
HETATM    1 CL1  UNL     1     -37.383  15.136  50.454  1.00  0.00    -0.250 Cl
HETATM    2  O1  UNL     1     -41.085  13.159  50.528  1.00  0.00     0.000 OA
HETATM    3  O2  UNL     1     -39.471  10.901  50.524  1.00  0.00     0.000 OA
HETATM    4  N1  UNL     1     -39.744  13.551  50.504  1.00  0.00     0.000 N 
HETATM    5  N2  UNL     1     -38.666  12.042  50.502  1.00  0.00     0.000 N 
HETATM    6  C1  UNL     1     -38.920  13.507  50.492  1.00  0.00     0.022 A 
HETATM    7  C2  UNL     1     -38.440  12.836  50.491  1.00  0.00     0.022 A 
HETATM    8  C3  UNL     1     -40.151  12.121  50.523  1.00  0.00     0.000 A 
HETATM    9  C4  UNL     1     -40.291  12.934  50.518  1.00  0.00     0.003 A 
HETATM   10  C5  UNL     1     -39.427  11.724  50.516  1.00  0.00     0.002 A 
HETATM   11  C6  UNL     1     -40.061  14.312  50.502  1.00  0.00     0.009 A 
HETATM   12  C7  UNL     1     -38.577  14.295  50.480  1.00  0.00     0.038 A 
HETATM   13  C8  UNL     1     -37.584  12.906  50.477  1.00  0.00     0.025 A 
HETATM   14  C9  UNL     1     -38.049  11.494  50.498  1.00  0.00     0.004 A 
HETATM   15  C10 UNL     1     -37.721  14.384  50.466  1.00  0.00     0.053 A 
HETATM   16  C11 UNL     1     -37.222  13.685  50.465  1.00  0.00     0.053 A 
HETATM   17  C12 UNL     1     -40.880  14.416  50.513  1.00  0.00     0.002 A 
HETATM   18  C13 UNL     1     -39.562  14.969  50.488  1.00  0.00     0.010 A 
HETATM   19  C14 UNL     1     -41.199  15.179  50.511  1.00  0.00     0.002 A 
HETATM   20  C15 UNL     1     -39.880  15.729  50.486  1.00  0.00     0.002 A 
HETATM   21  C16 UNL     1     -40.698  15.834  50.497  1.00  0.00     0.002 A 
ENDROOT
TORSDOF 29
ENDMDL
