MODEL 1
REMARK VINA RESULT:     297.1      0.000      0.000
REMARK  25 active torsions:
REMARK  status: ('A' for Active; 'I' for Inactive)
REMARK    1  A    between atoms: O3_3  and  C15_20 
REMARK    2  A    between atoms: N1_4  and  C1_6 
REMARK    3  A    between atoms: N2_5  and  C1_6 
REMARK    4  A    between atoms: C2_7  and  C4_9 
REMARK    5  A    between atoms: C3_8  and  C4_9 
REMARK    6  A    between atoms: C3_8  and  C7_12 
REMARK    7  A    between atoms: C4_9  and  C8_13 
REMARK    8  A    between atoms: C7_12  and  C13_18 
REMARK    9  A    between atoms: C7_12  and  C18_23 
REMARK   10  A    between atoms: C8_13  and  C10_15 
REMARK   11  A    between atoms: C8_13  and  C19_24 
REMARK   12  A    between atoms: C10_15  and  C11_16 
REMARK   13  A    between atoms: C10_15  and  C13_18 
REMARK   14  A    between atoms: C10_15  and  C15_20 
REMARK   15  A    between atoms: C10_15  and  C18_23 
REMARK   16  A    between atoms: C11_16  and  C14_19 
REMARK   17  A    between atoms: C11_16  and  C18_23 
REMARK   18  A    between atoms: C12_17  and  C13_18 
REMARK   19  A    between atoms: C12_17  and  C17_22 
REMARK   20  A    between atoms: C13_18  and  C16_21 
REMARK   21  A    between atoms: C13_18  and  C19_24 
REMARK   22  A    between atoms: C14_19  and  C15_20 
REMARK   23  A    between atoms: C15_20  and  C18_23 
REMARK   24  A    between atoms: C16_21  and  C17_22 
REMARK   25  A    between atoms: C17_22  and  C19_24 
ROOT
HETATM    1  O1  UNL     1     -37.798  12.577  50.363  1.00  0.00    -0.339 OA
HETATM    2  O2  UNL     1     -38.245  15.442  50.498  1.00  0.00    -0.339 OA
HETATM    3  O3  UNL     1     -41.324  11.116  50.312  1.00  0.00     0.000 OA
HETATM    4  N1  UNL     1     -38.985  13.442  50.409  1.00  0.00     0.000 N 
HETATM    5  N2  UNL     1     -39.112  14.256  50.447  1.00  0.00     0.000 N 
HETATM    6  C1  UNL     1     -37.794  14.046  50.431  1.00  0.00     0.160 A 
HETATM    7  C2  UNL     1     -36.980  14.173  50.433  1.00  0.00     0.093 A 
HETATM    8  C3  UNL     1     -38.171  13.312  50.399  1.00  0.00     0.141 A 
HETATM    9  C4  UNL     1     -38.376  14.630  50.461  1.00  0.00     0.141 A 
HETATM   10  C5  UNL     1     -36.682  14.941  50.467  1.00  0.00     0.052 A 
HETATM   11  C6  UNL     1     -35.867  15.068  50.469  1.00  0.00     0.014 A 
HETATM   12  C7  UNL     1     -39.570  12.861  50.384  1.00  0.00     0.022 A 
HETATM   13  C8  UNL     1     -39.847  14.632  50.468  1.00  0.00     0.022 A 
HETATM   14  C9  UNL     1     -35.569  15.837  50.503  1.00  0.00     0.005 A 
HETATM   15  C10 UNL     1     -40.367  13.076  50.398  1.00  0.00     0.004 A 
HETATM   16  C11 UNL     1     -39.359  12.064  50.347  1.00  0.00     0.002 A 
HETATM   17  C12 UNL     1     -39.888  15.455  50.506  1.00  0.00     0.002 A 
HETATM   18  C13 UNL     1     -40.540  14.185  50.450  1.00  0.00     0.004 A 
HETATM   19  C14 UNL     1     -40.952  12.494  50.374  1.00  0.00     0.002 A 
HETATM   20  C15 UNL     1     -39.944  11.483  50.323  1.00  0.00     0.002 A 
HETATM   21  C16 UNL     1     -40.622  15.831  50.527  1.00  0.00     0.002 A 
HETATM   22  C17 UNL     1     -41.274  14.560  50.471  1.00  0.00     0.002 A 
HETATM   23  C18 UNL     1     -40.739  11.698  50.336  1.00  0.00     0.002 A 
HETATM   24  C19 UNL     1     -41.315  15.383  50.510  1.00  0.00     0.002 A 
ENDROOT
TORSDOF 25
ENDMDL
