MODEL 1
REMARK VINA RESULT:     320.4      0.000      0.000
REMARK WARNING: 32 MAX_TORS EXCEEDED!!!
REMARK  39 active torsions:
REMARK  status: ('A' for Active; 'I' for Inactive)
REMARK    1  A    between atoms: F1_1  and  C9_18 
REMARK    2  A    between atoms: F1_1  and  C11_20 
REMARK    3  A    between atoms: F3_3  and  N2_9 
REMARK    4  A    between atoms: F3_3  and  C11_20 
REMARK    5  A    between atoms: F4_4  and  N2_9 
REMARK    6  A    between atoms: F4_4  and  C10_19 
REMARK    7  A    between atoms: F4_4  and  C13_22 
REMARK    8  A    between atoms: F5_5  and  C13_22 
REMARK    9  A    between atoms: F5_5  and  C15_24 
REMARK   10  A    between atoms: O1_7  and  C12_21 
REMARK   11  A    between atoms: N1_8  and  C3_12 
REMARK   12  A    between atoms: N1_8  and  C5_14 
REMARK   13  A    between atoms: N1_8  and  C9_18 
REMARK   14  A    between atoms: N2_9  and  C9_18 
REMARK   15  A    between atoms: N2_9  and  C16_25 
REMARK   16  A    between atoms: C1_10  and  C5_14 
REMARK   17  A    between atoms: C1_10  and  C7_16 
REMARK   18  A    between atoms: C1_10  and  C9_18 
REMARK   19  A    between atoms: C2_11  and  C3_12 
REMARK   20  A    between atoms: C2_11  and  C6_15 
REMARK   21  A    between atoms: C3_12  and  C12_21 
REMARK   22  A    between atoms: C4_13  and  C6_15 
REMARK   23  A    between atoms: C5_14  and  C6_15 
REMARK   24  A    between atoms: C7_16  and  C10_19 
REMARK   25  A    between atoms: C7_16  and  C11_20 
REMARK   26  A    between atoms: C8_17  and  C9_18 
REMARK   27  A    between atoms: C8_17  and  C11_20 
REMARK   28  A    between atoms: C8_17  and  C13_22 
REMARK   29  A    between atoms: C9_18  and  C11_20 
REMARK   30  A    between atoms: C9_18  and  C10_19 
REMARK   31  A    between atoms: C9_18  and  C16_25 
REMARK   32  A    between atoms: C10_19  and  C12_21 
REMARK   33  A    between atoms: C10_19  and  C17_26 
REMARK   34  A    between atoms: C11_20  and  C16_25 
REMARK   35  A    between atoms: C12_21  and  C15_24 
REMARK   36  A    between atoms: C13_22  and  C17_26 
REMARK   37  A    between atoms: C13_22  and  C14_23 
REMARK   38  A    between atoms: C14_23  and  C15_24 
REMARK   39  A    between atoms: C15_24  and  C17_26 
ROOT
HETATM    1  F1  UNL     1     -37.720  12.568  49.545  1.00  0.00    -0.376 F 
HETATM    2  F2  UNL     1     -36.735  12.336  48.964  1.00  0.00    -0.244 F 
HETATM    3  F3  UNL     1     -37.193  12.806  48.000  1.00  0.00    -0.295 F 
HETATM    4  C16 UNL     1     -37.456  12.687  48.773  1.00  0.00     0.312 A 
ENDROOT
BRANCH   1   5
HETATM    5  C9  UNL     1     -38.767  13.110  49.154  1.00  0.00     0.149 A 
HETATM    6  C7  UNL     1     -39.439  13.532  48.929  1.00  0.00     0.104 A 
HETATM    7  C3  UNL     1     -39.529  14.319  49.159  1.00  0.00     0.053 A 
HETATM    8  C8  UNL     1     -40.021  13.166  48.472  1.00  0.00     0.127 A 
HETATM    9  O1  UNL     1     -40.202  14.740  48.934  1.00  0.00     0.000 OA
HETATM   10  C12 UNL     1     -40.717  13.615  48.244  1.00  0.00     0.085 A 
HETATM   11  C1  UNL     1     -38.948  14.684  49.615  1.00  0.00     0.034 A 
HETATM   12  N1  UNL     1     -38.275  14.263  49.841  1.00  0.00     0.000 N 
HETATM   13  C2  UNL     1     -39.038  15.471  49.846  1.00  0.00     0.006 A 
HETATM   14  C4  UNL     1     -38.456  15.837  50.303  1.00  0.00     0.003 A 
HETATM   15  C6  UNL     1     -37.693  14.628  50.297  1.00  0.00     0.003 A 
HETATM   16  C5  UNL     1     -37.783  15.415  50.528  1.00  0.00     0.003 A 
HETATM   17  C10 UNL     1     -39.931  12.379  48.241  1.00  0.00     0.170 A 
HETATM   18  N2  UNL     1     -39.258  11.958  48.467  1.00  0.00     0.000 N 
HETATM   19  C14 UNL     1     -41.327  13.240  47.768  1.00  0.00     0.097 A 
HETATM   20  C13 UNL     1     -40.530  11.987  47.766  1.00  0.00     0.176 A 
HETATM   21  C11 UNL     1     -38.676  12.324  48.923  1.00  0.00     0.198 A 
HETATM   22  C15 UNL     1     -41.233  12.421  47.528  1.00  0.00     0.174 A 
BRANCH  17  23
HETATM   23  F4  UNL     1     -39.708  11.177  47.936  1.00  0.00    -0.381 F 
HETATM   24  C17 UNL     1     -40.516  11.123  47.781  1.00  0.00     0.257 A 
HETATM   25  F5  UNL     1     -41.325  11.070  47.626  1.00  0.00    -0.381 F 
HETATM   26  F6  UNL     1     -40.423  10.331  47.570  1.00  0.00    -0.272 F 
ENDBRANCH  17  23
ENDBRANCH   1   5
TORSDOF 39
ENDMDL
