MODEL 1
REMARK VINA RESULT:     106.0      0.000      0.000
REMARK  20 active torsions:
REMARK  status: ('A' for Active; 'I' for Inactive)
REMARK    1  A    between atoms: S1_1  and  N4_7 
REMARK    2  A    between atoms: O1_2  and  C2_9 
REMARK    3  A    between atoms: O2_3  and  N4_7 
REMARK    4  A    between atoms: O2_3  and  C1_8 
REMARK    5  A    between atoms: O2_3  and  C3_10 
REMARK    6  A    between atoms: O2_3  and  C7_14 
REMARK    7  A    between atoms: N2_5  and  C6_13 
REMARK    8  A    between atoms: N3_6  and  N4_7 
REMARK    9  A    between atoms: N4_7  and  C10_17 
REMARK   10  A    between atoms: C1_8  and  C4_11 
REMARK   11  A    between atoms: C2_9  and  C3_10 
REMARK   12  A    between atoms: C2_9  and  C4_11 
REMARK   13  A    between atoms: C2_9  and  C6_13 
REMARK   14  A    between atoms: C3_10  and  C4_11 
REMARK   15  A    between atoms: C3_10  and  C5_12 
REMARK   16  A    between atoms: C4_11  and  C6_13 
REMARK   17  A    between atoms: C5_12  and  C6_13 
REMARK   18  A    between atoms: C7_14  and  C10_17 
REMARK   19  A    between atoms: C8_15  and  C9_16 
REMARK   20  A    between atoms: C9_16  and  C10_17 
ROOT
HETATM    1  S1  UNL     1     -41.319  13.337  48.340  1.00  0.00    -0.201 SA
HETATM    2  O1  UNL     1     -41.326  13.876  47.716  1.00  0.00     0.000 OA
HETATM    3  O2  UNL     1     -41.312  12.797  48.964  1.00  0.00     0.000 OA
HETATM    4  N1  UNL     1     -41.322  12.713  47.800  1.00  0.00     0.000 N 
HETATM    5  N2  UNL     1     -41.307  15.833  50.498  1.00  0.00    -0.273 NA
HETATM    6  N3  UNL     1     -41.321  11.309  47.531  1.00  0.00     0.000 N 
HETATM    7  N4  UNL     1     -41.310  11.778  48.881  1.00  0.00     0.000 N 
HETATM    8  C1  UNL     1     -41.316  13.961  48.879  1.00  0.00     0.066 A 
HETATM    9  C2  UNL     1     -41.321  14.740  48.609  1.00  0.00     0.066 A 
HETATM   10  C3  UNL     1     -41.309  13.806  49.689  1.00  0.00     0.066 A 
HETATM   11  C4  UNL     1     -41.310  15.209  49.959  1.00  0.00     0.074 A 
HETATM   12  C5  UNL     1     -41.318  15.364  49.148  1.00  0.00     0.074 A 
HETATM   13  C6  UNL     1     -41.306  14.430  50.229  1.00  0.00     0.074 A 
HETATM   14  C7  UNL     1     -41.318  11.933  48.070  1.00  0.00     0.025 A 
HETATM   15  C8  UNL     1     -41.316  10.530  47.802  1.00  0.00     0.009 A 
HETATM   16  C9  UNL     1     -41.306  10.998  49.152  1.00  0.00     0.009 A 
HETATM   17  C10 UNL     1     -41.309  10.374  48.612  1.00  0.00     0.009 A 
ENDROOT
TORSDOF 20
ENDMDL
