MODEL 1
REMARK VINA RESULT:     391.3      0.000      0.000
REMARK WARNING: 32 MAX_TORS EXCEEDED!!!
REMARK  34 active torsions:
REMARK  status: ('A' for Active; 'I' for Inactive)
REMARK    1  A    between atoms: F1_1  and  C11_18 
REMARK    2  A    between atoms: F1_1  and  C13_20 
REMARK    3  A    between atoms: O1_2  and  C14_21 
REMARK    4  A    between atoms: O1_2  and  C18_25 
REMARK    5  A    between atoms: N2_6  and  C10_17 
REMARK    6  A    between atoms: N2_6  and  C12_19 
REMARK    7  A    between atoms: N2_6  and  C16_23 
REMARK    8  A    between atoms: N3_7  and  C11_18 
REMARK    9  A    between atoms: C1_8  and  C9_16 
REMARK   10  A    between atoms: C4_11  and  C5_12 
REMARK   11  A    between atoms: C4_11  and  C7_14 
REMARK   12  A    between atoms: C4_11  and  C14_21 
REMARK   13  A    between atoms: C4_11  and  C15_22 
REMARK   14  A    between atoms: C5_12  and  C6_13 
REMARK   15  A    between atoms: C5_12  and  C15_22 
REMARK   16  A    between atoms: C5_12  and  C19_26 
REMARK   17  A    between atoms: C6_13  and  C9_16 
REMARK   18  A    between atoms: C6_13  and  C14_21 
REMARK   19  A    between atoms: C6_13  and  C16_23 
REMARK   20  A    between atoms: C7_14  and  C13_20 
REMARK   21  A    between atoms: C8_15  and  C9_16 
REMARK   22  A    between atoms: C8_15  and  C11_18 
REMARK   23  A    between atoms: C8_15  and  C12_19 
REMARK   24  A    between atoms: C8_15  and  C17_24 
REMARK   25  A    between atoms: C9_16  and  C16_23 
REMARK   26  A    between atoms: C10_17  and  C11_18 
REMARK   27  A    between atoms: C11_18  and  C12_19 
REMARK   28  A    between atoms: C11_18  and  C16_23 
REMARK   29  A    between atoms: C13_20  and  C16_23 
REMARK   30  A    between atoms: C13_20  and  C15_22 
REMARK   31  A    between atoms: C14_21  and  C15_22 
REMARK   32  A    between atoms: C15_22  and  C18_25 
REMARK   33  A    between atoms: C15_22  and  C19_26 
REMARK   34  A    between atoms: C16_23  and  C18_25 
ROOT
HETATM    1  F1  UNL     1     -37.552  15.057  49.659  1.00  0.00    -0.551 F 
HETATM    2  O1  UNL     1     -35.816  12.617  50.067  1.00  0.00     0.000 OA
HETATM    3  O2  UNL     1     -36.263  10.225  50.518  1.00  0.00    -0.323 OA
HETATM    4  O3  UNL     1     -35.337  11.292  50.299  1.00  0.00    -0.323 OA
HETATM    5  N1  UNL     1     -38.147  11.810  50.272  1.00  0.00     0.000 N 
HETATM    6  N2  UNL     1     -39.144  14.506  49.799  1.00  0.00     0.000 N 
HETATM    7  N3  UNL     1     -40.405  15.558  49.635  1.00  0.00     0.000 N 
HETATM    8  C1  UNL     1     -38.924  11.541  50.340  1.00  0.00     0.052 A 
HETATM    9  C2  UNL     1     -39.736  11.690  50.332  1.00  0.00    -0.027 A 
HETATM   10  C3  UNL     1     -39.459  10.925  50.466  1.00  0.00    -0.027 A 
HETATM   11  C4  UNL     1     -37.999  12.607  50.121  1.00  0.00     0.085 A 
HETATM   12  C5  UNL     1     -37.519  11.282  50.354  1.00  0.00     0.103 A 
HETATM   13  C6  UNL     1     -37.222  12.876  50.053  1.00  0.00     0.085 A 
HETATM   14  C7  UNL     1     -38.513  13.980  49.881  1.00  0.00     0.065 A 
HETATM   15  C8  UNL     1     -39.919  14.234  49.868  1.00  0.00     0.043 A 
HETATM   16  C9  UNL     1     -38.662  13.147  50.038  1.00  0.00     0.059 A 
HETATM   17  C10 UNL     1     -40.550  14.760  49.786  1.00  0.00     0.027 A 
HETATM   18  C11 UNL     1     -38.998  15.304  49.648  1.00  0.00     0.058 A 
HETATM   19  C12 UNL     1     -39.629  15.830  49.567  1.00  0.00     0.030 A 
HETATM   20  C13 UNL     1     -37.054  13.704  49.896  1.00  0.00     0.064 A 
HETATM   21  C14 UNL     1     -36.742  11.551  50.286  1.00  0.00     0.148 A 
HETATM   22  C15 UNL     1     -36.593  12.348  50.135  1.00  0.00     0.106 A 
HETATM   23  C16 UNL     1     -37.704  14.260  49.809  1.00  0.00     0.065 A 
HETATM   24  C17 UNL     1     -41.325  14.487  49.855  1.00  0.00     0.007 A 
HETATM   25  C18 UNL     1     -36.274  13.965  49.829  1.00  0.00     0.059 A 
HETATM   26  C19 UNL     1     -36.114  11.023  50.368  1.00  0.00     0.194 A 
ENDROOT
TORSDOF 34
ENDMDL
