MODEL 1
REMARK VINA RESULT:      82.5      0.000      0.000
REMARK  14 active torsions:
REMARK  status: ('A' for Active; 'I' for Inactive)
REMARK    1  A    between atoms: O1_1  and  C3_7 
REMARK    2  A    between atoms: O2_2  and  C8_12 
REMARK    3  A    between atoms: O3_3  and  C7_11 
REMARK    4  A    between atoms: C2_6  and  C3_7 
REMARK    5  A    between atoms: C2_6  and  C6_10 
REMARK    6  A    between atoms: C2_6  and  C8_12 
REMARK    7  A    between atoms: C3_7  and  C5_9 
REMARK    8  A    between atoms: C4_8  and  C5_9 
REMARK    9  A    between atoms: C4_8  and  C7_11 
REMARK   10  A    between atoms: C4_8  and  C8_12 
REMARK   11  A    between atoms: C5_9  and  C6_10 
REMARK   12  A    between atoms: C5_9  and  C8_12 
REMARK   13  A    between atoms: C6_10  and  C7_11 
REMARK   14  A    between atoms: C7_11  and  C8_12 
ROOT
HETATM    1  O1  UNL     1     -40.762  14.440  49.968  1.00  0.00     0.000 OA
HETATM    2  O2  UNL     1     -40.584  11.603  49.093  1.00  0.00     0.000 OA
HETATM    3  O3  UNL     1     -41.108  11.573  47.528  1.00  0.00     0.000 OA
HETATM    4  N1  UNL     1     -41.244  15.837  49.233  1.00  0.00    -0.301 NA
HETATM    5  C1  UNL     1     -41.024  14.425  49.186  1.00  0.00     0.084 A 
HETATM    6  C2  UNL     1     -41.045  13.712  48.772  1.00  0.00     0.035 A 
HETATM    7  C3  UNL     1     -41.265  15.124  48.819  1.00  0.00     0.099 A 
HETATM    8  C4  UNL     1     -40.804  13.014  49.139  1.00  0.00     0.022 A 
HETATM    9  C5  UNL     1     -41.307  13.698  47.990  1.00  0.00     0.035 A 
HETATM   10  C6  UNL     1     -40.825  12.301  48.725  1.00  0.00     0.009 A 
HETATM   11  C7  UNL     1     -41.328  12.985  47.575  1.00  0.00     0.009 A 
HETATM   12  C8  UNL     1     -41.087  12.286  47.943  1.00  0.00     0.009 A 
ENDROOT
TORSDOF 14
ENDMDL
