MODEL 1
REMARK VINA RESULT:     195.4      0.000      0.000
REMARK  17 active torsions:
REMARK  status: ('A' for Active; 'I' for Inactive)
REMARK    1  A    between atoms: P1_1  and  O1_2 
REMARK    2  A    between atoms: O1_2  and  O5_6 
REMARK    3  A    between atoms: O1_2  and  C3_13 
REMARK    4  A    between atoms: O2_3  and  C4_14 
REMARK    5  A    between atoms: O5_6  and  C4_14 
REMARK    6  A    between atoms: N1_8  and  N2_9 
REMARK    7  A    between atoms: N2_9  and  C7_17 
REMARK    8  A    between atoms: N3_10  and  C7_17 
REMARK    9  A    between atoms: C1_11  and  C5_15 
REMARK   10  A    between atoms: C2_12  and  C3_13 
REMARK   11  A    between atoms: C2_12  and  C6_16 
REMARK   12  A    between atoms: C3_13  and  C4_14 
REMARK   13  A    between atoms: C3_13  and  C5_15 
REMARK   14  A    between atoms: C5_15  and  C6_16 
REMARK   15  A    between atoms: C5_15  and  C8_18 
REMARK   16  A    between atoms: C6_16  and  C7_17 
REMARK   17  A    between atoms: C7_17  and  C8_18 
ROOT
HETATM    1  P1  UNL     1     -36.643  11.792  50.484  1.00  0.00    -0.036 P 
HETATM    2  O1  UNL     1     -37.419  12.992  50.470  1.00  0.00     0.000 OA
HETATM    3  O2  UNL     1     -38.805  12.095  50.457  1.00  0.00     0.000 OA
HETATM    4  O3  UNL     1     -35.908  11.417  50.495  1.00  0.00     0.000 OA
HETATM    5  O4  UNL     1     -37.018  11.058  50.483  1.00  0.00     0.000 OA
HETATM    6  O5  UNL     1     -36.268  12.527  50.486  1.00  0.00     0.000 OA
HETATM    7  O6  UNL     1     -38.282  15.839  50.447  1.00  0.00     0.000 OA
HETATM    8  N1  UNL     1     -38.932  14.566  50.445  1.00  0.00     0.000 N 
HETATM    9  N2  UNL     1     -39.709  15.764  50.430  1.00  0.00     0.000 N 
HETATM   10  N3  UNL     1     -41.136  15.691  50.413  1.00  0.00    -0.221 NA
HETATM   11  C1  UNL     1     -38.155  13.367  50.459  1.00  0.00     0.007 A 
HETATM   12  C2  UNL     1     -38.197  14.191  50.455  1.00  0.00     0.006 A 
HETATM   13  C3  UNL     1     -38.847  12.918  50.453  1.00  0.00     0.007 A 
HETATM   14  C4  UNL     1     -37.378  12.168  50.474  1.00  0.00     0.026 A 
HETATM   15  C5  UNL     1     -39.624  14.118  50.438  1.00  0.00     0.028 A 
HETATM   16  C6  UNL     1     -38.975  15.390  50.440  1.00  0.00     0.032 A 
HETATM   17  C7  UNL     1     -40.358  14.493  50.428  1.00  0.00     0.075 A 
HETATM   18  C8  UNL     1     -40.401  15.316  50.423  1.00  0.00     0.075 A 
ENDROOT
TORSDOF 17
ENDMDL
