MODEL 1
REMARK VINA RESULT:     213.6      0.000      0.000
REMARK  28 active torsions:
REMARK  status: ('A' for Active; 'I' for Inactive)
REMARK    1  A    between atoms: N1_1  and  C4_7 
REMARK    2  A    between atoms: N2_2  and  C3_6 
REMARK    3  A    between atoms: N3_3  and  C3_6 
REMARK    4  A    between atoms: N3_3  and  C9_12 
REMARK    5  A    between atoms: N3_3  and  C16_19 
REMARK    6  A    between atoms: C1_4  and  C4_7 
REMARK    7  A    between atoms: C2_5  and  C3_6 
REMARK    8  A    between atoms: C2_5  and  C5_8 
REMARK    9  A    between atoms: C2_5  and  C11_14 
REMARK   10  A    between atoms: C3_6  and  C4_7 
REMARK   11  A    between atoms: C3_6  and  C6_9 
REMARK   12  A    between atoms: C4_7  and  C10_13 
REMARK   13  A    between atoms: C5_8  and  C15_18 
REMARK   14  A    between atoms: C6_9  and  C8_11 
REMARK   15  A    between atoms: C6_9  and  C16_19 
REMARK   16  A    between atoms: C7_10  and  C9_12 
REMARK   17  A    between atoms: C7_10  and  C11_14 
REMARK   18  A    between atoms: C7_10  and  C14_17 
REMARK   19  A    between atoms: C8_11  and  C9_12 
REMARK   20  A    between atoms: C8_11  and  C12_15 
REMARK   21  A    between atoms: C8_11  and  C13_16 
REMARK   22  A    between atoms: C9_12  and  C17_20 
REMARK   23  A    between atoms: C11_14  and  C12_15 
REMARK   24  A    between atoms: C11_14  and  C15_18 
REMARK   25  A    between atoms: C12_15  and  C14_17 
REMARK   26  A    between atoms: C13_16  and  C17_20 
REMARK   27  A    between atoms: C14_17  and  C15_18 
REMARK   28  A    between atoms: C16_19  and  C17_20 
ROOT
HETATM    1  N1  UNL     1     -38.869  14.925  50.155  1.00  0.00     0.000 N 
HETATM    2  N2  UNL     1     -37.271  15.201  50.385  1.00  0.00     0.000 N 
HETATM    3  N3  UNL     1     -39.939  15.681  49.925  1.00  0.00     0.000 N 
HETATM    4  C1  UNL     1     -38.381  14.313  50.281  1.00  0.00     0.000 A 
HETATM    5  C2  UNL     1     -37.573  14.434  50.399  1.00  0.00     0.000 A 
HETATM    6  C3  UNL     1     -38.584  15.698  50.138  1.00  0.00     0.000 A 
HETATM    7  C4  UNL     1     -37.779  15.837  50.253  1.00  0.00     0.000 A 
HETATM    8  C5  UNL     1     -38.555  13.542  50.316  1.00  0.00     0.000 A 
HETATM    9  C6  UNL     1     -39.652  14.914  50.032  1.00  0.00     0.000 A 
HETATM   10  C7  UNL     1     -39.260  13.190  50.233  1.00  0.00     0.000 A 
HETATM   11  C8  UNL     1     -39.965  13.523  50.095  1.00  0.00     0.000 A 
HETATM   12  C9  UNL     1     -40.140  14.290  50.006  1.00  0.00     0.000 A 
HETATM   13  C10 UNL     1     -36.497  15.326  50.497  1.00  0.00     0.000 A 
HETATM   14  C11 UNL     1     -37.874  13.098  50.459  1.00  0.00     0.000 A 
HETATM   15  C12 UNL     1     -39.332  12.369  50.288  1.00  0.00     0.000 A 
HETATM   16  C13 UNL     1     -40.947  14.390  49.870  1.00  0.00     0.000 A 
HETATM   17  C14 UNL     1     -37.928  12.277  50.516  1.00  0.00     0.000 A 
HETATM   18  C15 UNL     1     -38.662  11.910  50.430  1.00  0.00     0.000 A 
HETATM   19  C16 UNL     1     -41.251  15.148  49.761  1.00  0.00     0.000 A 
HETATM   20  C17 UNL     1     -40.743  15.799  49.789  1.00  0.00     0.000 A 
ENDROOT
TORSDOF 28
ENDMDL
