MODEL 1
REMARK VINA RESULT:     361.7      0.000      0.000
REMARK WARNING: 32 MAX_TORS EXCEEDED!!!
REMARK  34 active torsions:
REMARK  status: ('A' for Active; 'I' for Inactive)
REMARK    1  A    between atoms: O1_1  and  C11_13 
REMARK    2  A    between atoms: O2_2  and  C19_21 
REMARK    3  A    between atoms: C1_3  and  C4_6 
REMARK    4  A    between atoms: C1_3  and  C8_10 
REMARK    5  A    between atoms: C1_3  and  C15_17 
REMARK    6  A    between atoms: C2_4  and  C8_10 
REMARK    7  A    between atoms: C2_4  and  C10_12 
REMARK    8  A    between atoms: C3_5  and  C6_8 
REMARK    9  A    between atoms: C3_5  and  C7_9 
REMARK   10  A    between atoms: C3_5  and  C16_18 
REMARK   11  A    between atoms: C4_6  and  C6_8 
REMARK   12  A    between atoms: C4_6  and  C12_14 
REMARK   13  A    between atoms: C5_7  and  C6_8 
REMARK   14  A    between atoms: C5_7  and  C7_9 
REMARK   15  A    between atoms: C5_7  and  C11_13 
REMARK   16  A    between atoms: C5_7  and  C21_23 
REMARK   17  A    between atoms: C6_8  and  C8_10 
REMARK   18  A    between atoms: C6_8  and  C11_13 
REMARK   19  A    between atoms: C7_9  and  C10_12 
REMARK   20  A    between atoms: C8_10  and  C9_11 
REMARK   21  A    between atoms: C8_10  and  C11_13 
REMARK   22  A    between atoms: C8_10  and  C16_18 
REMARK   23  A    between atoms: C9_11  and  C17_19 
REMARK   24  A    between atoms: C10_12  and  C15_17 
REMARK   25  A    between atoms: C11_13  and  C15_17 
REMARK   26  A    between atoms: C12_14  and  C13_15 
REMARK   27  A    between atoms: C13_15  and  C17_19 
REMARK   28  A    between atoms: C13_15  and  C14_16 
REMARK   29  A    between atoms: C13_15  and  C20_22 
REMARK   30  A    between atoms: C14_16  and  C16_18 
REMARK   31  A    between atoms: C14_16  and  C20_22 
REMARK   32  A    between atoms: C17_19  and  C19_21 
REMARK   33  A    between atoms: C18_20  and  C19_21 
REMARK   34  A    between atoms: C19_21  and  C20_22 
ROOT
HETATM    1  O1  UNL     1     -41.151  12.324  50.525  1.00  0.00     0.000 OA
HETATM    2  O2  UNL     1     -35.729  15.834  50.527  1.00  0.00     0.000 OA
HETATM    3  C1  UNL     1     -39.431  12.309  50.523  1.00  0.00     0.000 A 
HETATM    4  C2  UNL     1     -38.642  12.070  50.522  1.00  0.00     0.000 A 
HETATM    5  C3  UNL     1     -38.040  12.633  50.523  1.00  0.00     0.000 A 
HETATM    6  C4  UNL     1     -38.227  13.437  50.524  1.00  0.00     0.000 A 
HETATM    7  C5  UNL     1     -39.899  11.635  50.522  1.00  0.00     0.000 A 
HETATM    8  C6  UNL     1     -39.619  13.113  50.525  1.00  0.00     0.000 A 
HETATM    9  C7  UNL     1     -38.629  11.249  50.521  1.00  0.00     0.000 A 
HETATM   10  C8  UNL     1     -39.016  13.677  50.525  1.00  0.00     0.000 A 
HETATM   11  C9  UNL     1     -37.608  14.034  50.525  1.00  0.00     0.000 A 
HETATM   12  C10 UNL     1     -39.404  10.982  50.521  1.00  0.00     0.000 A 
HETATM   13  C11 UNL     1     -40.221  12.549  50.524  1.00  0.00     0.000 C 
HETATM   14  C12 UNL     1     -37.222  12.371  50.522  1.00  0.00     0.000 A 
HETATM   15  C13 UNL     1     -36.785  13.790  50.524  1.00  0.00     0.000 A 
HETATM   16  C14 UNL     1     -37.831  14.900  50.527  1.00  0.00     0.000 A 
HETATM   17  C15 UNL     1     -40.724  11.618  50.523  1.00  0.00     0.000 A 
HETATM   18  C16 UNL     1     -38.400  14.267  50.526  1.00  0.00     0.000 A 
HETATM   19  C17 UNL     1     -36.589  12.953  50.522  1.00  0.00     0.000 A 
HETATM   20  C18 UNL     1     -37.188  15.522  50.527  1.00  0.00     0.000 A 
HETATM   21  C19 UNL     1     -36.126  14.397  50.525  1.00  0.00     0.000 A 
HETATM   22  C20 UNL     1     -36.329  15.268  50.526  1.00  0.00     0.000 A 
HETATM   23  C21 UNL     1     -41.121  10.896  50.522  1.00  0.00     0.000 A 
ENDROOT
TORSDOF 34
ENDMDL
