MODEL 1
REMARK VINA RESULT:      62.3      0.000      0.000
REMARK  12 active torsions:
REMARK  status: ('A' for Active; 'I' for Inactive)
REMARK    1  A    between atoms: C2_4  and  C4_6 
REMARK    2  A    between atoms: C2_4  and  C6_8 
REMARK    3  A    between atoms: C2_4  and  C10_12 
REMARK    4  A    between atoms: C3_5  and  C9_11 
REMARK    5  A    between atoms: C4_6  and  C5_7 
REMARK    6  A    between atoms: C4_6  and  C8_10 
REMARK    7  A    between atoms: C5_7  and  C7_9 
REMARK    8  A    between atoms: C5_7  and  C9_11 
REMARK    9  A    between atoms: C7_9  and  C8_10 
REMARK   10  A    between atoms: C7_9  and  C10_12 
REMARK   11  A    between atoms: C8_10  and  C9_11 
REMARK   12  A    between atoms: C8_10  and  C11_13 
ROOT
HETATM    1  O1  UNL     1     -41.269  13.812  48.621  1.00  0.00     0.000 OA
HETATM    2  N1  UNL     1     -41.324  11.630  48.611  1.00  0.00    -0.273 NA
HETATM    3  C1  UNL     1     -41.297  12.411  48.344  1.00  0.00     0.086 A 
HETATM    4  C2  UNL     1     -41.297  13.033  48.887  1.00  0.00     0.052 A 
HETATM    5  C3  UNL     1     -41.269  14.433  49.164  1.00  0.00     0.011 A 
HETATM    6  C4  UNL     1     -41.296  14.275  49.973  1.00  0.00     0.012 A 
HETATM    7  C5  UNL     1     -41.242  15.214  48.899  1.00  0.00     0.002 A 
HETATM    8  C6  UNL     1     -41.270  12.570  47.535  1.00  0.00     0.086 A 
HETATM    9  C7  UNL     1     -41.296  14.896  50.516  1.00  0.00     0.003 A 
HETATM   10  C8  UNL     1     -41.242  15.835  49.441  1.00  0.00     0.002 A 
HETATM   11  C9  UNL     1     -41.269  15.676  50.250  1.00  0.00     0.002 A 
HETATM   12  C10 UNL     1     -41.324  13.494  50.239  1.00  0.00     0.015 A 
HETATM   13  C11 UNL     1     -41.215  15.373  48.089  1.00  0.00     0.001 A 
ENDROOT
TORSDOF 12
ENDMDL
