MODEL 1
REMARK VINA RESULT:     290.2      0.000      0.000
REMARK WARNING: 32 MAX_TORS EXCEEDED!!!
REMARK  40 active torsions:
REMARK  status: ('A' for Active; 'I' for Inactive)
REMARK    1  A    between atoms: O1_1  and  C2_7 
REMARK    2  A    between atoms: O1_1  and  C11_16 
REMARK    3  A    between atoms: O2_2  and  C8_13 
REMARK    4  A    between atoms: O2_2  and  C10_15 
REMARK    5  A    between atoms: O2_2  and  C13_18 
REMARK    6  A    between atoms: O2_2  and  C15_20 
REMARK    7  A    between atoms: O3_3  and  C1_6 
REMARK    8  A    between atoms: O3_3  and  C3_8 
REMARK    9  A    between atoms: O3_3  and  C6_11 
REMARK   10  A    between atoms: N1_4  and  C12_17 
REMARK   11  A    between atoms: N2_5  and  C12_17 
REMARK   12  A    between atoms: N2_5  and  C13_18 
REMARK   13  A    between atoms: N2_5  and  C17_22 
REMARK   14  A    between atoms: C1_6  and  C7_12 
REMARK   15  A    between atoms: C1_6  and  C8_13 
REMARK   16  A    between atoms: C1_6  and  C9_14 
REMARK   17  A    between atoms: C2_7  and  C4_9 
REMARK   18  A    between atoms: C2_7  and  C6_11 
REMARK   19  A    between atoms: C3_8  and  C4_9 
REMARK   20  A    between atoms: C3_8  and  C5_10 
REMARK   21  A    between atoms: C3_8  and  C7_12 
REMARK   22  A    between atoms: C3_8  and  C9_14 
REMARK   23  A    between atoms: C5_10  and  C6_11 
REMARK   24  A    between atoms: C6_11  and  C7_12 
REMARK   25  A    between atoms: C8_13  and  C9_14 
REMARK   26  A    between atoms: C8_13  and  C18_23 
REMARK   27  A    between atoms: C9_14  and  C10_15 
REMARK   28  A    between atoms: C10_15  and  C11_16 
REMARK   29  A    between atoms: C10_15  and  C12_17 
REMARK   30  A    between atoms: C10_15  and  C14_19 
REMARK   31  A    between atoms: C11_16  and  C13_18 
REMARK   32  A    between atoms: C11_16  and  C18_23 
REMARK   33  A    between atoms: C12_17  and  C15_20 
REMARK   34  A    between atoms: C12_17  and  C20_25 
REMARK   35  A    between atoms: C13_18  and  C14_19 
REMARK   36  A    between atoms: C14_19  and  C18_23 
REMARK   37  A    between atoms: C15_20  and  C17_22 
REMARK   38  A    between atoms: C16_21  and  C19_24 
REMARK   39  A    between atoms: C16_21  and  C20_25 
REMARK   40  A    between atoms: C17_22  and  C19_24 
ROOT
HETATM    1  O1  UNL     1     -41.328  14.007  48.463  1.00  0.00     0.000 OA
HETATM    2  O2  UNL     1     -40.083  12.563  49.526  1.00  0.00     0.000 OA
HETATM    3  O3  UNL     1     -40.056  13.809  50.226  1.00  0.00     0.000 OA
HETATM    4  C1  UNL     1     -40.809  14.397  49.432  1.00  0.00     0.000 A 
HETATM    5  C2  UNL     1     -41.237  15.042  49.144  1.00  0.00     0.000 A 
HETATM    6  C3  UNL     1     -40.366  14.473  50.123  1.00  0.00     0.000 A 
HETATM    7  C4  UNL     1     -40.824  13.679  49.029  1.00  0.00     0.000 A 
HETATM    8  C5  UNL     1     -41.222  15.761  49.548  1.00  0.00     0.000 A 
HETATM    9  C6  UNL     1     -40.350  15.193  50.527  1.00  0.00     0.000 A 
HETATM   10  C7  UNL     1     -40.778  15.837  50.240  1.00  0.00     0.000 A 
HETATM   11  C8  UNL     1     -40.840  12.960  48.625  1.00  0.00     0.000 A 
HETATM   12  C9  UNL     1     -40.321  13.351  49.594  1.00  0.00     0.000 A 
HETATM   13  C10 UNL     1     -40.412  12.316  48.912  1.00  0.00     0.000 A 
HETATM   14  C11 UNL     1     -41.284  12.884  47.933  1.00  0.00     0.000 A 
HETATM   15  C12 UNL     1     -39.580  12.235  50.092  1.00  0.00     0.000 A 
HETATM   16  C13 UNL     1     -40.428  11.596  48.508  1.00  0.00     0.000 A 
HETATM   17  C14 UNL     1     -41.299  12.165  47.529  1.00  0.00     0.000 A 
HETATM   18  C18 UNL     1     -40.871  11.520  47.817  1.00  0.00     0.000 A 
ENDROOT
BRANCH   2  19
HETATM   19  C15 UNL     1     -39.342  11.448  50.025  1.00  0.00     0.000 A 
HETATM   20  N1  UNL     1     -39.317  10.665  50.285  1.00  0.00     0.000 N 
HETATM   21  C16 UNL     1     -38.601  10.333  50.523  1.00  0.00     0.000 A 
HETATM   22  C20 UNL     1     -40.009  10.216  50.308  1.00  0.00     0.000 A 
HETATM   23  N2  UNL     1     -38.650  11.897  50.002  1.00  0.00     0.000 N 
HETATM   24  C17 UNL     1     -37.909  10.782  50.501  1.00  0.00     0.000 A 
HETATM   25  C19 UNL     1     -37.934  11.564  50.240  1.00  0.00     0.000 A 
ENDBRANCH   2  19
TORSDOF 40
ENDMDL
