MODEL 1
REMARK VINA RESULT:      96.1      0.000      0.000
REMARK  13 active torsions:
REMARK  status: ('A' for Active; 'I' for Inactive)
REMARK    1  A    between atoms: O1_1  and  C8_13 
REMARK    2  A    between atoms: O1_1  and  C9_14 
REMARK    3  A    between atoms: O2_2  and  C7_12 
REMARK    4  A    between atoms: N2_4  and  N3_5 
REMARK    5  A    between atoms: C1_6  and  C6_11 
REMARK    6  A    between atoms: C2_7  and  C3_8 
REMARK    7  A    between atoms: C2_7  and  C4_9 
REMARK    8  A    between atoms: C2_7  and  C6_11 
REMARK    9  A    between atoms: C3_8  and  C5_10 
REMARK   10  A    between atoms: C4_9  and  C5_10 
REMARK   11  A    between atoms: C5_10  and  C6_11 
REMARK   12  A    between atoms: C7_12  and  C8_13 
REMARK   13  A    between atoms: C8_13  and  C9_14 
ROOT
HETATM    1  O1  UNL     1     -40.884  13.567  49.073  1.00  0.00     0.000 OA
HETATM    2  O2  UNL     1     -41.323  14.162  47.962  1.00  0.00     0.000 OA
HETATM    3  N1  UNL     1     -41.156  11.643  48.023  1.00  0.00     0.000 N 
HETATM    4  N2  UNL     1     -41.259  10.307  47.529  1.00  0.00    -0.112 NA
HETATM    5  N3  UNL     1     -40.789  10.542  48.857  1.00  0.00    -0.112 NA
HETATM    6  C1  UNL     1     -41.052  14.298  48.729  1.00  0.00     0.000 A 
HETATM    7  C2  UNL     1     -41.242  14.985  48.314  1.00  0.00     0.000 A 
HETATM    8  C3  UNL     1     -40.772  14.347  49.504  1.00  0.00     0.000 A 
HETATM    9  C4  UNL     1     -40.684  15.086  49.864  1.00  0.00     0.000 A 
HETATM   10  C5  UNL     1     -41.153  15.723  48.674  1.00  0.00     0.000 A 
HETATM   11  C6  UNL     1     -40.874  15.772  49.448  1.00  0.00     0.000 A 
HETATM   12  C7  UNL     1     -41.052  12.979  48.519  1.00  0.00     0.003 A 
HETATM   13  C8  UNL     1     -41.323  13.347  47.832  1.00  0.00     0.003 A 
HETATM   14  C9  UNL     1     -40.964  12.167  48.632  1.00  0.00     0.036 A 
HETATM   15  C10 UNL     1     -41.068  10.831  48.136  1.00  0.00     0.182 A 
ENDROOT
TORSDOF 13
ENDMDL
