MODEL 1
REMARK VINA RESULT:     230.7      0.000      0.000
REMARK  29 active torsions:
REMARK  status: ('A' for Active; 'I' for Inactive)
REMARK    1  A    between atoms: O1_1  and  C4_6 
REMARK    2  A    between atoms: O1_1  and  C16_18 
REMARK    3  A    between atoms: N1_2  and  C15_17 
REMARK    4  A    between atoms: C1_3  and  C8_10 
REMARK    5  A    between atoms: C1_3  and  C10_12 
REMARK    6  A    between atoms: C2_4  and  C9_11 
REMARK    7  A    between atoms: C3_5  and  C4_6 
REMARK    8  A    between atoms: C3_5  and  C5_7 
REMARK    9  A    between atoms: C3_5  and  C7_9 
REMARK   10  A    between atoms: C4_6  and  C6_8 
REMARK   11  A    between atoms: C4_6  and  C8_10 
REMARK   12  A    between atoms: C5_7  and  C10_12 
REMARK   13  A    between atoms: C5_7  and  C15_17 
REMARK   14  A    between atoms: C6_8  and  C7_9 
REMARK   15  A    between atoms: C7_9  and  C8_10 
REMARK   16  A    between atoms: C9_11  and  C10_12 
REMARK   17  A    between atoms: C9_11  and  C15_17 
REMARK   18  A    between atoms: C9_11  and  C17_19 
REMARK   19  A    between atoms: C10_12  and  C19_21 
REMARK   20  A    between atoms: C11_13  and  C12_14 
REMARK   21  A    between atoms: C11_13  and  C14_16 
REMARK   22  A    between atoms: C12_14  and  C13_15 
REMARK   23  A    between atoms: C13_15  and  C14_16 
REMARK   24  A    between atoms: C15_17  and  C16_18 
REMARK   25  A    between atoms: C15_17  and  C18_20 
REMARK   26  A    between atoms: C16_18  and  C17_19 
REMARK   27  A    between atoms: C16_18  and  C19_21 
REMARK   28  A    between atoms: C17_19  and  C18_20 
REMARK   29  A    between atoms: C18_20  and  C19_21 
ROOT
HETATM    1  O1  UNL     1     -38.830  15.216  50.408  1.00  0.00     0.000 OA
HETATM    2  N1  UNL     1     -40.008  13.350  48.415  1.00  0.00     0.000 N 
HETATM    3  C1  UNL     1     -38.191  14.365  49.929  1.00  0.00     0.000 A 
HETATM    4  C2  UNL     1     -38.973  14.620  49.857  1.00  0.00     0.000 A 
HETATM    5  C3  UNL     1     -37.924  13.722  49.487  1.00  0.00     0.000 A 
HETATM    6  C4  UNL     1     -37.676  14.755  50.443  1.00  0.00     0.000 A 
HETATM    7  C5  UNL     1     -39.116  14.023  49.305  1.00  0.00     0.000 A 
HETATM    8  C6  UNL     1     -37.143  13.468  49.559  1.00  0.00     0.000 A 
HETATM    9  C7  UNL     1     -36.896  14.501  50.515  1.00  0.00     0.000 A 
HETATM   10  C8  UNL     1     -36.628  13.857  50.073  1.00  0.00     0.000 A 
HETATM   11  C9  UNL     1     -39.865  13.946  48.967  1.00  0.00     0.000 A 
HETATM   12  C10 UNL     1     -39.755  14.874  49.784  1.00  0.00     0.000 A 
HETATM   13  C11 UNL     1     -39.459  12.793  48.149  1.00  0.00     0.000 A 
HETATM   14  C12 UNL     1     -40.724  13.205  48.032  1.00  0.00     0.000 A 
HETATM   15  C13 UNL     1     -39.837  12.304  47.601  1.00  0.00     0.000 A 
HETATM   16  C14 UNL     1     -40.618  12.559  47.529  1.00  0.00     0.000 A 
HETATM   17  C15 UNL     1     -40.270  14.485  49.271  1.00  0.00     0.000 A 
HETATM   18  C16 UNL     1     -40.022  15.518  50.227  1.00  0.00     0.000 A 
HETATM   19  C17 UNL     1     -41.050  14.739  49.199  1.00  0.00     0.000 A 
HETATM   20  C18 UNL     1     -40.802  15.772  50.155  1.00  0.00     0.000 A 
HETATM   21  C19 UNL     1     -41.318  15.382  49.640  1.00  0.00     0.000 A 
ENDROOT
TORSDOF 29
ENDMDL
MODEL 2
REMARK VINA RESULT:     230.7      1.699      3.071
REMARK  29 active torsions:
REMARK  status: ('A' for Active; 'I' for Inactive)
REMARK    1  A    between atoms: O1_1  and  C4_6 
REMARK    2  A    between atoms: O1_1  and  C16_18 
REMARK    3  A    between atoms: N1_2  and  C15_17 
REMARK    4  A    between atoms: C1_3  and  C8_10 
REMARK    5  A    between atoms: C1_3  and  C10_12 
REMARK    6  A    between atoms: C2_4  and  C9_11 
REMARK    7  A    between atoms: C3_5  and  C4_6 
REMARK    8  A    between atoms: C3_5  and  C5_7 
REMARK    9  A    between atoms: C3_5  and  C7_9 
REMARK   10  A    between atoms: C4_6  and  C6_8 
REMARK   11  A    between atoms: C4_6  and  C8_10 
REMARK   12  A    between atoms: C5_7  and  C10_12 
REMARK   13  A    between atoms: C5_7  and  C15_17 
REMARK   14  A    between atoms: C6_8  and  C7_9 
REMARK   15  A    between atoms: C7_9  and  C8_10 
REMARK   16  A    between atoms: C9_11  and  C10_12 
REMARK   17  A    between atoms: C9_11  and  C15_17 
REMARK   18  A    between atoms: C9_11  and  C17_19 
REMARK   19  A    between atoms: C10_12  and  C19_21 
REMARK   20  A    between atoms: C11_13  and  C12_14 
REMARK   21  A    between atoms: C11_13  and  C14_16 
REMARK   22  A    between atoms: C12_14  and  C13_15 
REMARK   23  A    between atoms: C13_15  and  C14_16 
REMARK   24  A    between atoms: C15_17  and  C16_18 
REMARK   25  A    between atoms: C15_17  and  C18_20 
REMARK   26  A    between atoms: C16_18  and  C17_19 
REMARK   27  A    between atoms: C16_18  and  C19_21 
REMARK   28  A    between atoms: C17_19  and  C18_20 
REMARK   29  A    between atoms: C18_20  and  C19_21 
ROOT
HETATM    1  O1  UNL     1     -37.548  13.086  50.517  1.00  0.00     0.000 OA
HETATM    2  N1  UNL     1     -39.909  14.896  50.520  1.00  0.00     0.000 N 
HETATM    3  C1  UNL     1     -38.635  12.660  50.515  1.00  0.00     0.000 A 
HETATM    4  C2  UNL     1     -38.305  13.416  50.518  1.00  0.00     0.000 A 
HETATM    5  C3  UNL     1     -39.454  12.567  50.514  1.00  0.00     0.000 A 
HETATM    6  C4  UNL     1     -38.144  11.996  50.513  1.00  0.00     0.000 A 
HETATM    7  C5  UNL     1     -39.061  13.746  50.518  1.00  0.00     0.000 A 
HETATM    8  C6  UNL     1     -39.784  11.812  50.511  1.00  0.00     0.000 A 
HETATM    9  C7  UNL     1     -38.474  11.240  50.511  1.00  0.00     0.000 A 
HETATM   10  C8  UNL     1     -39.294  11.148  50.509  1.00  0.00     0.000 A 
HETATM   11  C9  UNL     1     -39.153  14.566  50.520  1.00  0.00     0.000 A 
HETATM   12  C10 UNL     1     -37.975  14.173  50.520  1.00  0.00     0.000 A 
HETATM   13  C11 UNL     1     -40.620  14.478  50.518  1.00  0.00     0.000 A 
HETATM   14  C12 UNL     1     -40.087  15.701  50.523  1.00  0.00     0.000 A 
HETATM   15  C13 UNL     1     -41.238  15.025  50.519  1.00  0.00     0.000 A 
HETATM   16  C14 UNL     1     -40.908  15.782  50.522  1.00  0.00     0.000 A 
HETATM   17  C15 UNL     1     -38.464  14.837  50.522  1.00  0.00     0.000 A 
HETATM   18  C16 UNL     1     -37.154  14.265  50.522  1.00  0.00     0.000 A 
HETATM   19  C17 UNL     1     -38.135  15.592  50.525  1.00  0.00     0.000 A 
HETATM   20  C18 UNL     1     -36.825  15.020  50.524  1.00  0.00     0.000 A 
HETATM   21  C19 UNL     1     -37.315  15.685  50.526  1.00  0.00     0.000 A 
ENDROOT
TORSDOF 29
ENDMDL
