MODEL 1
REMARK VINA RESULT:     254.7      0.000      0.000
REMARK  10 active torsions:
REMARK  status: ('A' for Active; 'I' for Inactive)
REMARK    1  A    between atoms: O1_1  and  C5_11 
REMARK    2  A    between atoms: O2_2  and  C2_8 
REMARK    3  A    between atoms: O3_3  and  C11_17 
REMARK    4  A    between atoms: C2_8  and  C4_10 
REMARK    5  A    between atoms: C3_9  and  C4_10 
REMARK    6  A    between atoms: C3_9  and  C5_11 
REMARK    7  A    between atoms: C3_9  and  C6_12 
REMARK    8  A    between atoms: C4_10  and  C5_11 
REMARK    9  A    between atoms: C8_14  and  C11_17 
REMARK   10  A    between atoms: C11_17  and  C12_18 
ROOT
HETATM    1  O1  UNL     1     -39.075  14.144  50.022  1.00  0.00     0.000 OA
HETATM    2  O2  UNL     1     -36.825  12.454  49.521  1.00  0.00     0.000 OA
HETATM    3  O3  UNL     1     -40.075  14.319  49.016  1.00  0.00     0.000 OA
HETATM    4  O4  UNL     1     -35.826  12.279  50.526  1.00  0.00    -0.246 OA
HETATM    5  N1  UNL     1     -40.200  14.989  50.272  1.00  0.00     0.000 N 
HETATM    6  N2  UNL     1     -35.701  11.609  49.271  1.00  0.00    -0.051 NA
HETATM    7  C1  UNL     1     -37.950  13.299  49.772  1.00  0.00     0.011 A 
HETATM    8  C2  UNL     1     -37.878  12.912  49.046  1.00  0.00     0.017 A 
HETATM    9  C3  UNL     1     -38.658  13.639  49.519  1.00  0.00     0.010 A 
HETATM   10  C4  UNL     1     -37.243  12.959  50.023  1.00  0.00     0.046 A 
HETATM   11  C5  UNL     1     -38.022  13.685  50.496  1.00  0.00     0.008 A 
HETATM   12  C6  UNL     1     -38.455  13.014  48.466  1.00  0.00     0.018 A 
HETATM   13  C7  UNL     1     -38.383  12.627  47.741  1.00  0.00    -0.053 A 
HETATM   14  C8  UNL     1     -39.783  14.484  49.770  1.00  0.00     0.001 A 
HETATM   15  C9  UNL     1     -40.908  15.329  50.020  1.00  0.00     0.000 A 
HETATM   16  C10 UNL     1     -36.118  12.114  49.773  1.00  0.00     0.240 A 
HETATM   17  C11 UNL     1     -41.199  15.165  49.266  1.00  0.00     0.000 A 
HETATM   18  C12 UNL     1     -41.325  15.835  50.523  1.00  0.00     0.000 A 
ENDROOT
TORSDOF 10
ENDMDL
