MODEL 1
REMARK VINA RESULT:     394.2      0.000      0.000
REMARK WARNING: 32 MAX_TORS EXCEEDED!!!
REMARK  34 active torsions:
REMARK  status: ('A' for Active; 'I' for Inactive)
REMARK    1  A    between atoms: O1_1  and  C13_15 
REMARK    2  A    between atoms: O2_2  and  C19_21 
REMARK    3  A    between atoms: C1_3  and  C8_10 
REMARK    4  A    between atoms: C1_3  and  C11_13 
REMARK    5  A    between atoms: C2_4  and  C4_6 
REMARK    6  A    between atoms: C2_4  and  C8_10 
REMARK    7  A    between atoms: C2_4  and  C17_19 
REMARK    8  A    between atoms: C3_5  and  C7_9 
REMARK    9  A    between atoms: C3_5  and  C9_11 
REMARK   10  A    between atoms: C3_5  and  C16_18 
REMARK   11  A    between atoms: C4_6  and  C7_9 
REMARK   12  A    between atoms: C4_6  and  C10_12 
REMARK   13  A    between atoms: C5_7  and  C8_10 
REMARK   14  A    between atoms: C5_7  and  C14_16 
REMARK   15  A    between atoms: C6_8  and  C7_9 
REMARK   16  A    between atoms: C6_8  and  C9_11 
REMARK   17  A    between atoms: C6_8  and  C13_15 
REMARK   18  A    between atoms: C6_8  and  C21_23 
REMARK   19  A    between atoms: C7_9  and  C8_10 
REMARK   20  A    between atoms: C7_9  and  C13_15 
REMARK   21  A    between atoms: C8_10  and  C13_15 
REMARK   22  A    between atoms: C8_10  and  C16_18 
REMARK   23  A    between atoms: C9_11  and  C11_13 
REMARK   24  A    between atoms: C10_12  and  C12_14 
REMARK   25  A    between atoms: C11_13  and  C17_19 
REMARK   26  A    between atoms: C12_14  and  C14_16 
REMARK   27  A    between atoms: C12_14  and  C15_17 
REMARK   28  A    between atoms: C12_14  and  C20_22 
REMARK   29  A    between atoms: C13_15  and  C17_19 
REMARK   30  A    between atoms: C14_16  and  C19_21 
REMARK   31  A    between atoms: C15_17  and  C16_18 
REMARK   32  A    between atoms: C15_17  and  C20_22 
REMARK   33  A    between atoms: C18_20  and  C19_21 
REMARK   34  A    between atoms: C19_21  and  C20_22 
ROOT
HETATM    1  O1  UNL     1     -35.828  12.398  47.787  1.00  0.00     0.000 OA
HETATM    2  O2  UNL     1     -41.299  15.831  47.801  1.00  0.00     0.000 OA
HETATM    3  C1  UNL     1     -38.328  12.117  47.611  1.00  0.00     0.000 A 
HETATM    4  C2  UNL     1     -37.544  12.364  47.682  1.00  0.00     0.000 A 
HETATM    5  C3  UNL     1     -38.938  12.671  47.629  1.00  0.00     0.000 A 
HETATM    6  C4  UNL     1     -38.766  13.473  47.719  1.00  0.00     0.000 A 
HETATM    7  C5  UNL     1     -39.393  14.060  47.739  1.00  0.00     0.000 A 
HETATM    8  C6  UNL     1     -37.066  11.699  47.645  1.00  0.00     0.000 A 
HETATM    9  C7  UNL     1     -37.371  13.166  47.771  1.00  0.00     0.000 A 
HETATM   10  C8  UNL     1     -37.982  13.720  47.790  1.00  0.00     0.000 A 
HETATM   11  C9  UNL     1     -38.327  11.300  47.530  1.00  0.00     0.000 A 
HETATM   12  C10 UNL     1     -39.750  12.401  47.554  1.00  0.00     0.000 A 
HETATM   13  C11 UNL     1     -37.549  11.043  47.551  1.00  0.00     0.000 A 
HETATM   14  C12 UNL     1     -40.211  13.808  47.666  1.00  0.00     0.000 A 
HETATM   15  C13 UNL     1     -36.760  12.612  47.753  1.00  0.00     0.000 C 
HETATM   16  C14 UNL     1     -40.392  12.973  47.573  1.00  0.00     0.000 A 
HETATM   17  C15 UNL     1     -39.185  14.925  47.837  1.00  0.00     0.000 A 
HETATM   18  C16 UNL     1     -38.607  14.301  47.810  1.00  0.00     0.000 A 
HETATM   19  C17 UNL     1     -36.242  11.691  47.693  1.00  0.00     0.000 A 
HETATM   20  C18 UNL     1     -39.838  15.536  47.859  1.00  0.00     0.000 A 
HETATM   21  C19 UNL     1     -40.879  14.405  47.685  1.00  0.00     0.000 A 
HETATM   22  C20 UNL     1     -40.691  15.274  47.782  1.00  0.00     0.000 A 
HETATM   23  C21 UNL     1     -35.834  10.976  47.646  1.00  0.00     0.000 A 
ENDROOT
TORSDOF 34
ENDMDL
