MODEL 1
REMARK VINA RESULT:     392.6      0.000      0.000
REMARK WARNING: 32 MAX_TORS EXCEEDED!!!
REMARK  36 active torsions:
REMARK  status: ('A' for Active; 'I' for Inactive)
REMARK    1  A    between atoms: CL1_1  and  O6_7 
REMARK    2  A    between atoms: CL1_1  and  C14_21 
REMARK    3  A    between atoms: O1_2  and  O2_3 
REMARK    4  A    between atoms: O1_2  and  C5_12 
REMARK    5  A    between atoms: O1_2  and  C7_14 
REMARK    6  A    between atoms: O3_4  and  O5_6 
REMARK    7  A    between atoms: O3_4  and  C6_13 
REMARK    8  A    between atoms: O3_4  and  C11_18 
REMARK    9  A    between atoms: O4_5  and  C10_17 
REMARK   10  A    between atoms: O6_7  and  C13_20 
REMARK   11  A    between atoms: C1_8  and  C7_14 
REMARK   12  A    between atoms: C1_8  and  C9_16 
REMARK   13  A    between atoms: C1_8  and  C10_17 
REMARK   14  A    between atoms: C2_9  and  C5_12 
REMARK   15  A    between atoms: C2_9  and  C9_16 
REMARK   16  A    between atoms: C2_9  and  C10_17 
REMARK   17  A    between atoms: C3_10  and  C5_12 
REMARK   18  A    between atoms: C3_10  and  C6_13 
REMARK   19  A    between atoms: C3_10  and  C10_17 
REMARK   20  A    between atoms: C4_11  and  C5_12 
REMARK   21  A    between atoms: C4_11  and  C6_13 
REMARK   22  A    between atoms: C4_11  and  C8_15 
REMARK   23  A    between atoms: C4_11  and  C11_18 
REMARK   24  A    between atoms: C5_12  and  C9_16 
REMARK   25  A    between atoms: C7_14  and  C8_15 
REMARK   26  A    between atoms: C7_14  and  C12_19 
REMARK   27  A    between atoms: C7_14  and  C13_20 
REMARK   28  A    between atoms: C8_15  and  C11_18 
REMARK   29  A    between atoms: C8_15  and  C14_21 
REMARK   30  A    between atoms: C9_16  and  C10_17 
REMARK   31  A    between atoms: C10_17  and  C15_22 
REMARK   32  A    between atoms: C11_18  and  C14_21 
REMARK   33  A    between atoms: C12_19  and  C13_20 
REMARK   34  A    between atoms: C13_20  and  C14_21 
REMARK   35  A    between atoms: C13_20  and  C16_23 
REMARK   36  A    between atoms: C13_20  and  C17_24 
ROOT
HETATM    1 CL1  UNL     1     -37.895  15.835  49.337  1.00  0.00    -0.251 Cl
HETATM    2  O1  UNL     1     -38.882  14.504  48.586  1.00  0.00     0.000 OA
HETATM    3  O2  UNL     1     -39.623  14.998  48.734  1.00  0.00     0.000 OA
HETATM    4  O3  UNL     1     -37.779  12.820  47.914  1.00  0.00     0.000 OA
HETATM    5  O4  UNL     1     -41.328  13.012  47.586  1.00  0.00     0.000 OA
HETATM    6  O5  UNL     1     -36.583  12.988  48.135  1.00  0.00     0.000 OA
HETATM    7  O6  UNL     1     -36.225  15.587  49.416  1.00  0.00     0.000 OA
HETATM    8  C1  UNL     1     -39.065  13.786  48.222  1.00  0.00     0.009 A 
HETATM    9  C2  UNL     1     -39.164  13.051  47.861  1.00  0.00     0.002 A 
HETATM   10  C3  UNL     1     -39.918  12.793  47.649  1.00  0.00     0.001 A 
HETATM   11  C4  UNL     1     -38.361  13.372  48.108  1.00  0.00     0.012 A 
HETATM   12  C5  UNL     1     -39.722  14.263  48.372  1.00  0.00     0.002 A 
HETATM   13  C6  UNL     1     -38.977  12.317  47.533  1.00  0.00     0.002 A 
HETATM   14  C7  UNL     1     -37.744  13.834  48.401  1.00  0.00     0.023 A 
HETATM   15  C8  UNL     1     -38.066  14.533  48.696  1.00  0.00     0.037 A 
HETATM   16  C9  UNL     1     -40.574  13.270  47.798  1.00  0.00     0.001 A 
HETATM   17  C10 UNL     1     -40.476  14.005  48.160  1.00  0.00     0.001 A 
HETATM   18  C11 UNL     1     -36.896  13.690  48.433  1.00  0.00     0.022 A 
HETATM   19  C12 UNL     1     -37.563  15.138  49.044  1.00  0.00     0.052 A 
HETATM   20  C13 UNL     1     -36.379  14.284  48.777  1.00  0.00     0.024 A 
HETATM   21  C14 UNL     1     -36.715  15.012  49.084  1.00  0.00     0.044 A 
HETATM   22  C15 UNL     1     -40.280  15.475  48.884  1.00  0.00     0.000 A 
HETATM   23  C16 UNL     1     -35.770  12.853  48.167  1.00  0.00     0.004 A 
HETATM   24  C17 UNL     1     -35.410  15.463  49.453  1.00  0.00     0.015 A 
ENDROOT
TORSDOF 36
ENDMDL
