MODEL 1
REMARK VINA RESULT:     451.4      0.000      0.000
REMARK WARNING: 32 MAX_TORS EXCEEDED!!!
REMARK  45 active torsions:
REMARK  status: ('A' for Active; 'I' for Inactive)
REMARK    1  A    between atoms: O1_1  and  C10_18 
REMARK    2  A    between atoms: O2_2  and  C12_20 
REMARK    3  A    between atoms: O3_3  and  C4_12 
REMARK    4  A    between atoms: O3_3  and  C9_17 
REMARK    5  A    between atoms: O3_3  and  C16_24 
REMARK    6  A    between atoms: O4_4  and  O6_6 
REMARK    7  A    between atoms: O4_4  and  N2_8 
REMARK    8  A    between atoms: O4_4  and  C4_12 
REMARK    9  A    between atoms: O4_4  and  C8_16 
REMARK   10  A    between atoms: O4_4  and  C15_23 
REMARK   11  A    between atoms: O5_5  and  C15_23 
REMARK   12  A    between atoms: O5_5  and  C17_25 
REMARK   13  A    between atoms: O6_6  and  C11_19 
REMARK   14  A    between atoms: O6_6  and  C20_28 
REMARK   15  A    between atoms: N1_7  and  C3_11 
REMARK   16  A    between atoms: C1_9  and  C6_14 
REMARK   17  A    between atoms: C1_9  and  C7_15 
REMARK   18  A    between atoms: C1_9  and  C8_16 
REMARK   19  A    between atoms: C1_9  and  C11_19 
REMARK   20  A    between atoms: C2_10  and  C6_14 
REMARK   21  A    between atoms: C2_10  and  C9_17 
REMARK   22  A    between atoms: C2_10  and  C10_18 
REMARK   23  A    between atoms: C3_11  and  C6_14 
REMARK   24  A    between atoms: C3_11  and  C4_12 
REMARK   25  A    between atoms: C3_11  and  C5_13 
REMARK   26  A    between atoms: C3_11  and  C8_16 
REMARK   27  A    between atoms: C3_11  and  C12_20 
REMARK   28  A    between atoms: C4_12  and  C8_16 
REMARK   29  A    between atoms: C4_12  and  C7_15 
REMARK   30  A    between atoms: C4_12  and  C11_19 
REMARK   31  A    between atoms: C4_12  and  C15_23 
REMARK   32  A    between atoms: C4_12  and  C17_25 
REMARK   33  A    between atoms: C5_13  and  C7_15 
REMARK   34  A    between atoms: C6_14  and  C11_19 
REMARK   35  A    between atoms: C7_15  and  C9_17 
REMARK   36  A    between atoms: C7_15  and  C10_18 
REMARK   37  A    between atoms: C8_16  and  C9_17 
REMARK   38  A    between atoms: C8_16  and  C11_19 
REMARK   39  A    between atoms: C8_16  and  C16_24 
REMARK   40  A    between atoms: C9_17  and  C15_23 
REMARK   41  A    between atoms: C9_17  and  C17_25 
REMARK   42  A    between atoms: C11_19  and  C12_20 
REMARK   43  A    between atoms: C15_23  and  C16_24 
REMARK   44  A    between atoms: C16_24  and  C17_25 
REMARK   45  A    between atoms: C18_26  and  C19_27 
ROOT
HETATM    1  O1  UNL     1     -36.855  12.162  49.556  1.00  0.00     0.000 OA
HETATM    2  O2  UNL     1     -39.383  15.524  50.385  1.00  0.00     0.000 OA
HETATM    3  O3  UNL     1     -38.266  11.981  49.683  1.00  0.00     0.000 OA
HETATM    4  O4  UNL     1     -39.952  14.222  50.236  1.00  0.00     0.000 OA
HETATM    5  N1  UNL     1     -37.128  14.585  49.981  1.00  0.00     0.000 N 
HETATM    6  C1  UNL     1     -38.449  13.596  49.967  1.00  0.00     0.000 A 
HETATM    7  C2  UNL     1     -37.697  13.282  49.832  1.00  0.00     0.000 A 
HETATM    8  C3  UNL     1     -38.541  14.404  50.109  1.00  0.00     0.000 A 
HETATM    9  C4  UNL     1     -39.109  13.101  49.960  1.00  0.00     0.000 A 
HETATM   10  C5  UNL     1     -37.037  13.777  49.839  1.00  0.00     0.000 A 
HETATM   11  C6  UNL     1     -37.880  14.898  50.116  1.00  0.00     0.000 A 
HETATM   12  C7  UNL     1     -37.606  12.476  49.690  1.00  0.00     0.000 A 
HETATM   13  C9  UNL     1     -39.018  12.293  49.818  1.00  0.00     0.000 A 
HETATM   14  C10 UNL     1     -36.286  13.465  49.705  1.00  0.00     0.000 A 
HETATM   15  C11 UNL     1     -39.291  14.717  50.243  1.00  0.00     0.000 A 
HETATM   16  C12 UNL     1     -37.971  15.706  50.258  1.00  0.00     0.000 A 
HETATM   17  C13 UNL     1     -36.013  11.042  49.279  1.00  0.00     0.000 A 
HETATM   18  C14 UNL     1     -36.764  11.355  49.414  1.00  0.00     0.000 A 
HETATM   19  C16 UNL     1     -39.678  11.798  49.811  1.00  0.00     0.000 A 
HETATM   20  C18 UNL     1     -35.921  10.234  49.137  1.00  0.00     0.000 A 
HETATM   21  C19 UNL     1     -35.353  11.537  49.286  1.00  0.00     0.000 A 
HETATM   22  C20 UNL     1     -40.134  15.837  50.520  1.00  0.00     0.000 A 
ENDROOT
BRANCH   6  23
HETATM   23  C8  UNL     1     -39.861  13.414  50.094  1.00  0.00     0.000 A 
HETATM   24  N2  UNL     1     -40.519  12.918  50.101  1.00  0.00     0.000 N 
HETATM   25  O5  UNL     1     -41.272  13.233  50.222  1.00  0.00     0.000 OA
HETATM   26  O6  UNL     1     -40.426  12.107  49.985  1.00  0.00     0.000 OA
HETATM   27  C15 UNL     1     -40.614  13.730  50.216  1.00  0.00     0.000 A 
HETATM   28  C17 UNL     1     -40.707  14.541  50.331  1.00  0.00     0.000 A 
ENDBRANCH   6  23
TORSDOF 45
ENDMDL
