MODEL 1
REMARK VINA RESULT:     279.2      0.000      0.000
REMARK  29 active torsions:
REMARK  status: ('A' for Active; 'I' for Inactive)
REMARK    1  A    between atoms: CL1_1  and  C10_15 
REMARK    2  A    between atoms: N1_2  and  N3_4 
REMARK    3  A    between atoms: N1_2  and  N4_5 
REMARK    4  A    between atoms: N1_2  and  C5_10 
REMARK    5  A    between atoms: N2_3  and  C3_8 
REMARK    6  A    between atoms: N3_4  and  C5_10 
REMARK    7  A    between atoms: N4_5  and  C12_17 
REMARK    8  A    between atoms: C1_6  and  C4_9 
REMARK    9  A    between atoms: C2_7  and  C7_12 
REMARK   10  A    between atoms: C2_7  and  C9_14 
REMARK   11  A    between atoms: C2_7  and  C11_16 
REMARK   12  A    between atoms: C2_7  and  C13_18 
REMARK   13  A    between atoms: C3_8  and  C5_10 
REMARK   14  A    between atoms: C3_8  and  C6_11 
REMARK   15  A    between atoms: C4_9  and  C8_13 
REMARK   16  A    between atoms: C6_11  and  C7_12 
REMARK   17  A    between atoms: C7_12  and  C11_16 
REMARK   18  A    between atoms: C7_12  and  C12_17 
REMARK   19  A    between atoms: C8_13  and  C9_14 
REMARK   20  A    between atoms: C8_13  and  C10_15 
REMARK   21  A    between atoms: C8_13  and  C13_18 
REMARK   22  A    between atoms: C9_14  and  C17_22 
REMARK   23  A    between atoms: C10_15  and  C11_16 
REMARK   24  A    between atoms: C13_18  and  C14_19 
REMARK   25  A    between atoms: C13_18  and  C16_21 
REMARK   26  A    between atoms: C14_19  and  C15_20 
REMARK   27  A    between atoms: C14_19  and  C17_22 
REMARK   28  A    between atoms: C15_20  and  C16_21 
REMARK   29  A    between atoms: C16_21  and  C17_22 
ROOT
HETATM    1 CL1  UNL     1     -40.988  15.467  48.613  1.00  0.00    -0.251 Cl
HETATM    2  N1  UNL     1     -38.090  14.382  49.896  1.00  0.00     0.000 N 
HETATM    3  N2  UNL     1     -38.664  12.734  49.273  1.00  0.00     0.000 N 
HETATM    4  N3  UNL     1     -36.998  13.767  50.338  1.00  0.00     0.000 N 
HETATM    5  N4  UNL     1     -36.936  14.562  50.528  1.00  0.00     0.000 N 
HETATM    6  C1  UNL     1     -38.819  14.559  49.554  1.00  0.00     0.020 A 
HETATM    7  C2  UNL     1     -39.349  14.049  49.179  1.00  0.00     0.022 A 
HETATM    8  C3  UNL     1     -37.710  13.652  49.948  1.00  0.00     0.002 A 
HETATM    9  C4  UNL     1     -39.280  13.237  49.054  1.00  0.00     0.012 A 
HETATM   10  C5  UNL     1     -37.965  12.918  49.671  1.00  0.00     0.001 A 
HETATM   11  C6  UNL     1     -37.610  14.942  50.254  1.00  0.00     0.004 A 
HETATM   12  C7  UNL     1     -38.993  15.397  49.630  1.00  0.00     0.023 A 
HETATM   13  C8  UNL     1     -40.089  14.342  48.855  1.00  0.00     0.033 A 
HETATM   14  C9  UNL     1     -39.910  12.880  48.658  1.00  0.00     0.010 A 
HETATM   15  C10 UNL     1     -39.728  15.708  49.311  1.00  0.00     0.052 A 
HETATM   16  C11 UNL     1     -40.280  15.177  48.921  1.00  0.00     0.052 A 
HETATM   17  C12 UNL     1     -37.776  15.746  50.328  1.00  0.00     0.002 A 
HETATM   18  C13 UNL     1     -40.554  13.335  48.415  1.00  0.00     0.010 A 
HETATM   19  C14 UNL     1     -39.895  12.070  48.505  1.00  0.00     0.003 A 
HETATM   20  C15 UNL     1     -41.184  12.978  48.019  1.00  0.00     0.002 A 
HETATM   21  C16 UNL     1     -40.526  11.713  48.109  1.00  0.00     0.002 A 
HETATM   22  C17 UNL     1     -41.169  12.168  47.866  1.00  0.00     0.002 A 
ENDROOT
TORSDOF 29
ENDMDL
