MODEL 1
REMARK VINA RESULT:     254.2      0.000      0.000
REMARK  25 active torsions:
REMARK  status: ('A' for Active; 'I' for Inactive)
REMARK    1  A    between atoms: BR1_1  and  C12_15 
REMARK    2  A    between atoms: N2_3  and  C3_6 
REMARK    3  A    between atoms: N2_3  and  C16_19 
REMARK    4  A    between atoms: C1_4  and  C8_11 
REMARK    5  A    between atoms: C2_5  and  C5_8 
REMARK    6  A    between atoms: C2_5  and  C7_10 
REMARK    7  A    between atoms: C2_5  and  C9_12 
REMARK    8  A    between atoms: C3_6  and  C5_8 
REMARK    9  A    between atoms: C4_7  and  C5_8 
REMARK   10  A    between atoms: C4_7  and  C8_11 
REMARK   11  A    between atoms: C4_7  and  C14_17 
REMARK   12  A    between atoms: C5_8  and  C6_9 
REMARK   13  A    between atoms: C5_8  and  C16_19 
REMARK   14  A    between atoms: C6_9  and  C7_10 
REMARK   15  A    between atoms: C6_9  and  C8_11 
REMARK   16  A    between atoms: C6_9  and  C12_15 
REMARK   17  A    between atoms: C6_9  and  C14_17 
REMARK   18  A    between atoms: C7_10  and  C11_14 
REMARK   19  A    between atoms: C7_10  and  C14_17 
REMARK   20  A    between atoms: C8_11  and  C15_18 
REMARK   21  A    between atoms: C9_12  and  C10_13 
REMARK   22  A    between atoms: C11_14  and  C12_15 
REMARK   23  A    between atoms: C12_15  and  C14_17 
REMARK   24  A    between atoms: C13_16  and  C15_18 
REMARK   25  A    between atoms: C15_18  and  C16_19 
ROOT
HETATM    1 BR1  UNL     1     -36.992  11.733  50.118  1.00  0.00    -0.185 Br
HETATM    2  N1  UNL     1     -40.628  15.379  49.922  1.00  0.00    -0.010 N 
HETATM    3  N2  UNL     1     -40.821  13.712  48.526  1.00  0.00     0.000 N 
HETATM    4  C1  UNL     1     -39.649  13.522  49.323  1.00  0.00     0.054 A 
HETATM    5  C2  UNL     1     -39.807  14.227  49.722  1.00  0.00     0.157 A 
HETATM    6  C3  UNL     1     -40.471  14.674  49.523  1.00  0.00     0.195 A 
HETATM    7  C4  UNL     1     -38.986  13.076  49.522  1.00  0.00     0.043 A 
HETATM    8  C5  UNL     1     -40.156  13.265  48.725  1.00  0.00     0.046 A 
HETATM    9  C6  UNL     1     -38.828  12.370  49.122  1.00  0.00     0.029 A 
HETATM   10  C7  UNL     1     -38.478  13.333  50.119  1.00  0.00     0.046 A 
HETATM   11  C8  UNL     1     -39.999  12.560  48.326  1.00  0.00     0.012 A 
HETATM   12  C9  UNL     1     -40.121  15.637  50.520  1.00  0.00     0.239 A 
HETATM   13  C10 UNL     1     -41.292  15.826  49.723  1.00  0.00     0.245 A 
HETATM   14  C11 UNL     1     -38.164  11.923  49.321  1.00  0.00     0.039 A 
HETATM   15  C12 UNL     1     -37.814  12.885  50.318  1.00  0.00     0.039 A 
HETATM   16  C13 UNL     1     -40.506  12.302  47.728  1.00  0.00     0.004 A 
HETATM   17  C14 UNL     1     -37.657  12.181  49.919  1.00  0.00     0.039 A 
HETATM   18  C15 UNL     1     -41.327  13.455  47.929  1.00  0.00     0.004 A 
HETATM   19  C16 UNL     1     -41.171  12.750  47.530  1.00  0.00     0.004 A 
ENDROOT
TORSDOF 25
ENDMDL
