MODEL 1
REMARK VINA RESULT:     256.7      0.000      0.000
REMARK  23 active torsions:
REMARK  status: ('A' for Active; 'I' for Inactive)
REMARK    1  A    between atoms: BR1_1  and  C15_21 
REMARK    2  A    between atoms: O3_4  and  N2_6 
REMARK    3  A    between atoms: N1_5  and  C3_9 
REMARK    4  A    between atoms: N1_5  and  C5_11 
REMARK    5  A    between atoms: N2_6  and  C9_15 
REMARK    6  A    between atoms: C2_8  and  C4_10 
REMARK    7  A    between atoms: C2_8  and  C5_11 
REMARK    8  A    between atoms: C3_9  and  C4_10 
REMARK    9  A    between atoms: C4_10  and  C6_12 
REMARK   10  A    between atoms: C8_14  and  C10_16 
REMARK   11  A    between atoms: C8_14  and  C11_17 
REMARK   12  A    between atoms: C9_15  and  C12_18 
REMARK   13  A    between atoms: C9_15  and  C13_19 
REMARK   14  A    between atoms: C9_15  and  C14_20 
REMARK   15  A    between atoms: C10_16  and  C11_17 
REMARK   16  A    between atoms: C10_16  and  C13_19 
REMARK   17  A    between atoms: C10_16  and  C14_20 
REMARK   18  A    between atoms: C11_17  and  C12_18 
REMARK   19  A    between atoms: C11_17  and  C14_20 
REMARK   20  A    between atoms: C12_18  and  C13_19 
REMARK   21  A    between atoms: C12_18  and  C15_21 
REMARK   22  A    between atoms: C13_19  and  C14_20 
REMARK   23  A    between atoms: C13_19  and  C16_22 
ROOT
HETATM    1 BR1  UNL     1     -36.328  11.516  50.528  1.00  0.00    -0.212 Br
HETATM    2  O1  UNL     1     -37.571  14.218  50.525  1.00  0.00     0.000 OA
HETATM    3  O2  UNL     1     -36.637  13.137  50.526  1.00  0.00     0.000 OA
HETATM    4  O3  UNL     1     -39.444  12.601  50.526  1.00  0.00     0.000 OA
HETATM    5  N1  UNL     1     -40.585  14.560  50.525  1.00  0.00     0.000 N 
HETATM    6  N2  UNL     1     -38.974  13.950  50.525  1.00  0.00     0.000 N 
HETATM    7  C1  UNL     1     -39.908  15.032  50.524  1.00  0.00     0.004 A 
HETATM    8  C2  UNL     1     -40.147  15.821  50.523  1.00  0.00     0.001 A 
HETATM    9  C3  UNL     1     -40.972  15.838  50.523  1.00  0.00     0.001 A 
HETATM   10  C4  UNL     1     -41.243  15.059  50.524  1.00  0.00     0.004 A 
HETATM   11  C5  UNL     1     -39.129  14.760  50.524  1.00  0.00     0.001 A 
HETATM   12  C6  UNL     1     -40.603  13.735  50.525  1.00  0.00     0.022 A 
HETATM   13  C7  UNL     1     -41.325  13.338  50.526  1.00  0.00    -0.031 A 
HETATM   14  C8  UNL     1     -38.195  13.678  50.525  1.00  0.00     0.011 A 
HETATM   15  C9  UNL     1     -38.040  12.869  50.526  1.00  0.00     0.022 A 
HETATM   16  C10 UNL     1     -37.261  12.597  50.526  1.00  0.00     0.027 A 
HETATM   17  C11 UNL     1     -38.665  12.329  50.527  1.00  0.00     0.020 A 
HETATM   18  C12 UNL     1     -37.106  11.787  50.527  1.00  0.00     0.031 A 
HETATM   19  C13 UNL     1     -38.510  11.519  50.527  1.00  0.00     0.021 A 
HETATM   20  C14 UNL     1     -37.730  11.248  50.528  1.00  0.00     0.029 A 
HETATM   21  C15 UNL     1     -35.858  12.865  50.526  1.00  0.00     0.047 A 
HETATM   22  C16 UNL     1     -40.068  12.061  50.527  1.00  0.00     0.004 A 
ENDROOT
TORSDOF 23
ENDMDL
