MODEL 1
REMARK VINA RESULT:     371.1      0.000      0.000
REMARK  28 active torsions:
REMARK  status: ('A' for Active; 'I' for Inactive)
REMARK    1  A    between atoms: O1_2  and  O3_4 
REMARK    2  A    between atoms: O1_2  and  N2_7 
REMARK    3  A    between atoms: O1_2  and  C3_10 
REMARK    4  A    between atoms: O2_3  and  C9_16 
REMARK    5  A    between atoms: O3_4  and  C7_14 
REMARK    6  A    between atoms: O3_4  and  C8_15 
REMARK    7  A    between atoms: O3_4  and  C10_17 
REMARK    8  A    between atoms: N1_6  and  N2_7 
REMARK    9  A    between atoms: N2_7  and  C7_14 
REMARK   10  A    between atoms: C1_8  and  C6_13 
REMARK   11  A    between atoms: C2_9  and  C3_10 
REMARK   12  A    between atoms: C2_9  and  C5_12 
REMARK   13  A    between atoms: C3_10  and  C4_11 
REMARK   14  A    between atoms: C3_10  and  C6_13 
REMARK   15  A    between atoms: C3_10  and  C7_14 
REMARK   16  A    between atoms: C4_11  and  C5_12 
REMARK   17  A    between atoms: C5_12  and  C6_13 
REMARK   18  A    between atoms: C8_15  and  C11_18 
REMARK   19  A    between atoms: C9_16  and  C10_17 
REMARK   20  A    between atoms: C9_16  and  C13_20 
REMARK   21  A    between atoms: C10_17  and  C11_18 
REMARK   22  A    between atoms: C10_17  and  C12_19 
REMARK   23  A    between atoms: C11_18  and  C13_20 
REMARK   24  A    between atoms: C11_18  and  C15_22 
REMARK   25  A    between atoms: C12_19  and  C13_20 
REMARK   26  A    between atoms: C12_19  and  C14_21 
REMARK   27  A    between atoms: C12_19  and  C15_22 
REMARK   28  A    between atoms: C13_20  and  C14_21 
ROOT
HETATM    1  S1  UNL     1     -38.355  12.570  48.688  1.00  0.00    -0.210 SA
HETATM    2  O1  UNL     1     -38.972  13.735  49.680  1.00  0.00     0.000 OA
HETATM    3  O2  UNL     1     -38.380  12.148  47.980  1.00  0.00     0.000 OA
HETATM    4  O3  UNL     1     -38.330  12.991  49.397  1.00  0.00     0.000 OA
HETATM    5  O4  UNL     1     -35.361  10.978  50.362  1.00  0.00     0.000 OA
HETATM    6  N1  UNL     1     -39.984  14.021  48.713  1.00  0.00     0.000 N 
HETATM    7  N2  UNL     1     -39.015  13.004  48.453  1.00  0.00     0.000 N 
HETATM    8  C1  UNL     1     -40.293  14.604  49.209  1.00  0.00     0.007 A 
HETATM    9  C2  UNL     1     -40.953  15.039  48.973  1.00  0.00     0.001 A 
HETATM   10  C3  UNL     1     -39.941  14.752  49.941  1.00  0.00     0.007 A 
HETATM   11  C4  UNL     1     -41.262  15.622  49.469  1.00  0.00     0.001 A 
HETATM   12  C5  UNL     1     -40.250  15.335  50.436  1.00  0.00     0.001 A 
HETATM   13  C6  UNL     1     -40.910  15.770  50.200  1.00  0.00     0.001 A 
HETATM   14  C7  UNL     1     -39.324  13.587  48.948  1.00  0.00     0.032 A 
HETATM   15  C8  UNL     1     -37.694  12.135  48.924  1.00  0.00     0.029 A 
HETATM   16  C9  UNL     1     -37.385  11.552  48.429  1.00  0.00     0.029 A 
HETATM   17  C10 UNL     1     -37.342  12.282  49.655  1.00  0.00     0.029 A 
HETATM   18  C11 UNL     1     -36.374  11.265  49.395  1.00  0.00     0.020 A 
HETATM   19  C12 UNL     1     -36.726  11.118  48.664  1.00  0.00     0.020 A 
HETATM   20  C13 UNL     1     -36.683  11.848  49.890  1.00  0.00     0.022 A 
HETATM   21  C14 UNL     1     -35.713  10.831  49.631  1.00  0.00     0.006 A 
HETATM   22  C15 UNL     1     -35.404  10.248  49.135  1.00  0.00     0.004 A 
ENDROOT
TORSDOF 28
ENDMDL
