MODEL 1
REMARK VINA RESULT:     392.2      0.000      0.000
REMARK  29 active torsions:
REMARK  status: ('A' for Active; 'I' for Inactive)
REMARK    1  A    between atoms: S1_1  and  C3_11 
REMARK    2  A    between atoms: S1_1  and  C4_12 
REMARK    3  A    between atoms: S1_1  and  C5_13 
REMARK    4  A    between atoms: O3_4  and  C6_14 
REMARK    5  A    between atoms: O4_5  and  C10_18 
REMARK    6  A    between atoms: O4_5  and  C12_20 
REMARK    7  A    between atoms: N1_6  and  C5_13 
REMARK    8  A    between atoms: N1_6  and  C2_10 
REMARK    9  A    between atoms: N1_6  and  C4_12 
REMARK   10  A    between atoms: N1_6  and  C8_16 
REMARK   11  A    between atoms: N2_7  and  C5_13 
REMARK   12  A    between atoms: N2_7  and  C10_18 
REMARK   13  A    between atoms: C1_9  and  C5_13 
REMARK   14  A    between atoms: C2_10  and  C3_11 
REMARK   15  A    between atoms: C2_10  and  C8_16 
REMARK   16  A    between atoms: C3_11  and  C5_13 
REMARK   17  A    between atoms: C3_11  and  C6_14 
REMARK   18  A    between atoms: C3_11  and  C7_15 
REMARK   19  A    between atoms: C6_14  and  C7_15 
REMARK   20  A    between atoms: C6_14  and  C8_16 
REMARK   21  A    between atoms: C9_17  and  C11_19 
REMARK   22  A    between atoms: C9_17  and  C12_20 
REMARK   23  A    between atoms: C11_19  and  C16_24 
REMARK   24  A    between atoms: C12_20  and  C13_21 
REMARK   25  A    between atoms: C12_20  and  C15_23 
REMARK   26  A    between atoms: C13_21  and  C14_22 
REMARK   27  A    between atoms: C13_21  and  C16_24 
REMARK   28  A    between atoms: C14_22  and  C15_23 
REMARK   29  A    between atoms: C15_23  and  C16_24 
ROOT
HETATM    1  S1  UNL     1     -39.861  14.461  47.854  1.00  0.00    -0.161 SA
HETATM    2  O1  UNL     1     -39.008  13.321  50.218  1.00  0.00    -0.344 OA
HETATM    3  O2  UNL     1     -40.536  14.851  50.489  1.00  0.00    -0.355 OA
HETATM    4  O3  UNL     1     -41.248  15.684  49.572  1.00  0.00     0.000 OA
HETATM    5  O4  UNL     1     -38.061  12.413  49.680  1.00  0.00     0.000 OA
HETATM    6  N1  UNL     1     -39.709  14.159  49.145  1.00  0.00     0.000 N 
HETATM    7  N2  UNL     1     -38.377  12.886  48.369  1.00  0.00     0.000 N 
HETATM    8  N3  UNL     1     -37.279  11.837  47.725  1.00  0.00    -0.277 NA
HETATM    9  C1  UNL     1     -39.449  13.980  48.383  1.00  0.00     0.101 A 
HETATM   10  C2  UNL     1     -40.375  14.937  48.288  1.00  0.00     0.080 A 
HETATM   11  C3  UNL     1     -40.281  14.751  49.087  1.00  0.00     0.103 A 
HETATM   12  C4  UNL     1     -38.927  13.411  48.691  1.00  0.00     0.134 A 
HETATM   13  C5  UNL     1     -39.189  13.592  49.459  1.00  0.00     0.142 A 
HETATM   14  C6  UNL     1     -40.946  15.498  48.486  1.00  0.00     0.078 A 
HETATM   15  C7  UNL     1     -40.640  15.288  47.590  1.00  0.00     0.064 A 
HETATM   16  C8  UNL     1     -40.688  15.095  49.716  1.00  0.00     0.135 A 
HETATM   17  C9  UNL     1     -37.945  12.387  48.864  1.00  0.00     0.084 A 
HETATM   18  C10 UNL     1     -37.396  11.863  48.541  1.00  0.00     0.060 A 
HETATM   19  C11 UNL     1     -36.963  11.364  49.036  1.00  0.00     0.039 A 
HETATM   20  C12 UNL     1     -37.079  11.390  49.852  1.00  0.00     0.036 A 
HETATM   21  C13 UNL     1     -36.414  10.839  48.713  1.00  0.00     0.027 A 
HETATM   22  C14 UNL     1     -36.646  10.891  50.346  1.00  0.00     0.018 A 
HETATM   23  C15 UNL     1     -35.980  10.340  49.208  1.00  0.00     0.018 A 
HETATM   24  C16 UNL     1     -36.097  10.366  50.025  1.00  0.00     0.018 A 
ENDROOT
TORSDOF 29
ENDMDL
