MODEL 1
REMARK VINA RESULT:     330.4      0.000      0.000
REMARK WARNING: 32 MAX_TORS EXCEEDED!!!
REMARK  36 active torsions:
REMARK  status: ('A' for Active; 'I' for Inactive)
REMARK    1  A    between atoms: S1_1  and  C5_7 
REMARK    2  A    between atoms: S1_1  and  C9_11 
REMARK    3  A    between atoms: N1_2  and  C6_8 
REMARK    4  A    between atoms: C1_3  and  C7_9 
REMARK    5  A    between atoms: C1_3  and  C8_10 
REMARK    6  A    between atoms: C1_3  and  C14_16 
REMARK    7  A    between atoms: C2_4  and  C4_6 
REMARK    8  A    between atoms: C2_4  and  C13_15 
REMARK    9  A    between atoms: C2_4  and  C14_16 
REMARK   10  A    between atoms: C3_5  and  C4_6 
REMARK   11  A    between atoms: C3_5  and  C5_7 
REMARK   12  A    between atoms: C3_5  and  C7_9 
REMARK   13  A    between atoms: C3_5  and  C8_10 
REMARK   14  A    between atoms: C3_5  and  C14_16 
REMARK   15  A    between atoms: C3_5  and  C17_19 
REMARK   16  A    between atoms: C4_6  and  C6_8 
REMARK   17  A    between atoms: C5_7  and  C11_13 
REMARK   18  A    between atoms: C5_7  and  C12_14 
REMARK   19  A    between atoms: C6_8  and  C7_9 
REMARK   20  A    between atoms: C6_8  and  C14_16 
REMARK   21  A    between atoms: C6_8  and  C17_19 
REMARK   22  A    between atoms: C7_9  and  C10_12 
REMARK   23  A    between atoms: C8_10  and  C9_11 
REMARK   24  A    between atoms: C8_10  and  C12_14 
REMARK   25  A    between atoms: C8_10  and  C15_17 
REMARK   26  A    between atoms: C9_11  and  C12_14 
REMARK   27  A    between atoms: C9_11  and  C11_13 
REMARK   28  A    between atoms: C9_11  and  C16_18 
REMARK   29  A    between atoms: C11_13  and  C14_16 
REMARK   30  A    between atoms: C12_14  and  C13_15 
REMARK   31  A    between atoms: C13_15  and  C20_22 
REMARK   32  A    between atoms: C14_16  and  C19_21 
REMARK   33  A    between atoms: C15_17  and  C17_19 
REMARK   34  A    between atoms: C16_18  and  C18_20 
REMARK   35  A    between atoms: C17_19  and  C19_21 
REMARK   36  A    between atoms: C18_20  and  C20_22 
ROOT
HETATM    1  S1  UNL     1     -36.775  13.786  50.519  1.00  0.00    -0.238 SA
HETATM    2  N1  UNL     1     -40.222  11.108  50.524  1.00  0.00     0.000 N 
HETATM    3  C1  UNL     1     -39.280  12.182  50.523  1.00  0.00     0.010 A 
HETATM    4  C2  UNL     1     -39.119  12.991  50.524  1.00  0.00     0.014 A 
HETATM    5  C3  UNL     1     -38.660  11.638  50.521  1.00  0.00     0.010 A 
HETATM    6  C4  UNL     1     -40.061  11.917  50.525  1.00  0.00     0.004 A 
HETATM    7  C5  UNL     1     -38.337  13.256  50.522  1.00  0.00     0.011 A 
HETATM    8  C6  UNL     1     -38.821  10.828  50.520  1.00  0.00     0.005 A 
HETATM    9  C7  UNL     1     -39.602  10.563  50.522  1.00  0.00     0.003 A 
HETATM   10  C8  UNL     1     -37.717  12.712  50.520  1.00  0.00     0.011 A 
HETATM   11  C9  UNL     1     -38.176  14.065  50.523  1.00  0.00     0.014 A 
HETATM   12  C10 UNL     1     -41.003  10.843  50.526  1.00  0.00     0.000 A 
HETATM   13  C11 UNL     1     -36.936  12.977  50.518  1.00  0.00     0.015 A 
HETATM   14  C12 UNL     1     -37.395  14.330  50.522  1.00  0.00     0.016 A 
HETATM   15  C13 UNL     1     -38.831  14.622  50.526  1.00  0.00     0.017 A 
HETATM   16  C14 UNL     1     -37.898  11.872  50.519  1.00  0.00     0.014 A 
HETATM   17  C15 UNL     1     -36.282  12.420  50.516  1.00  0.00     0.017 A 
HETATM   18  C16 UNL     1     -37.214  15.170  50.522  1.00  0.00     0.018 A 
HETATM   19  C17 UNL     1     -37.257  11.300  50.517  1.00  0.00     0.013 A 
HETATM   20  C18 UNL     1     -38.669  15.466  50.527  1.00  0.00     0.015 A 
HETATM   21  C19 UNL     1     -36.443  11.576  50.515  1.00  0.00     0.015 A 
HETATM   22  C20 UNL     1     -37.856  15.742  50.525  1.00  0.00     0.015 A 
ENDROOT
TORSDOF 36
ENDMDL
