MODEL 1
REMARK VINA RESULT:     107.5      0.000      0.000
REMARK  16 active torsions:
REMARK  status: ('A' for Active; 'I' for Inactive)
REMARK    1  A    between atoms: O1_1  and  C3_8 
REMARK    2  A    between atoms: O2_2  and  C4_9 
REMARK    3  A    between atoms: O3_3  and  C5_10 
REMARK    4  A    between atoms: O4_4  and  C6_11 
REMARK    5  A    between atoms: N1_5  and  C4_9 
REMARK    6  A    between atoms: N1_5  and  C7_12 
REMARK    7  A    between atoms: C1_6  and  C3_8 
REMARK    8  A    between atoms: C1_6  and  C4_9 
REMARK    9  A    between atoms: C2_7  and  C4_9 
REMARK   10  A    between atoms: C2_7  and  C5_10 
REMARK   11  A    between atoms: C2_7  and  C7_12 
REMARK   12  A    between atoms: C3_8  and  C5_10 
REMARK   13  A    between atoms: C4_9  and  C5_10 
REMARK   14  A    between atoms: C5_10  and  C6_11 
REMARK   15  A    between atoms: C5_10  and  C8_13 
REMARK   16  A    between atoms: C6_11  and  C7_12 
ROOT
HETATM    1  O1  UNL     1     -41.317  14.683  47.649  1.00  0.00     0.000 OA
HETATM    2  O2  UNL     1     -41.318  15.500  49.083  1.00  0.00     0.000 OA
HETATM    3  O3  UNL     1     -41.320  14.667  50.507  1.00  0.00     0.000 OA
HETATM    4  O4  UNL     1     -41.319  12.208  47.635  1.00  0.00     0.000 OA
HETATM    5  N1  UNL     1     -41.320  13.025  49.069  1.00  0.00     0.000 N 
HETATM    6  C1  UNL     1     -41.319  13.442  48.356  1.00  0.00     0.001 A 
HETATM    7  C2  UNL     1     -41.318  14.267  48.361  1.00  0.00     0.000 A 
HETATM    8  C3  UNL     1     -41.319  14.675  49.078  1.00  0.00     0.000 A 
HETATM    9  C4  UNL     1     -41.320  14.259  49.790  1.00  0.00     0.000 A 
HETATM   10  C5  UNL     1     -41.321  13.434  49.785  1.00  0.00     0.003 A 
HETATM   11  C6  UNL     1     -41.321  12.200  49.064  1.00  0.00     0.007 A 
HETATM   12  C7  UNL     1     -41.318  13.033  47.640  1.00  0.00     0.001 A 
HETATM   13  C8  UNL     1     -41.322  11.784  49.776  1.00  0.00     0.018 A 
HETATM   14  C9  UNL     1     -41.322  10.959  49.772  1.00  0.00     0.021 A 
HETATM   15  C10 UNL     1     -41.323  10.542  50.484  1.00  0.00    -0.052 A 
ENDROOT
TORSDOF 16
ENDMDL
