MODEL 1
REMARK VINA RESULT:     501.1      0.000      0.000
REMARK WARNING: 32 MAX_TORS EXCEEDED!!!
REMARK  43 active torsions:
REMARK  status: ('A' for Active; 'I' for Inactive)
REMARK    1  A    between atoms: S1_1  and  C2_7 
REMARK    2  A    between atoms: S1_1  and  C7_12 
REMARK    3  A    between atoms: O1_2  and  C6_11 
REMARK    4  A    between atoms: O1_2  and  C12_17 
REMARK    5  A    between atoms: O1_2  and  C18_23 
REMARK    6  A    between atoms: O3_4  and  C21_26 
REMARK    7  A    between atoms: O4_5  and  C15_20 
REMARK    8  A    between atoms: O4_5  and  C24_29 
REMARK    9  A    between atoms: C1_6  and  C5_10 
REMARK   10  A    between atoms: C1_6  and  C9_14 
REMARK   11  A    between atoms: C1_6  and  C13_18 
REMARK   12  A    between atoms: C2_7  and  C9_14 
REMARK   13  A    between atoms: C2_7  and  C10_15 
REMARK   14  A    between atoms: C2_7  and  C11_16 
REMARK   15  A    between atoms: C3_8  and  C6_11 
REMARK   16  A    between atoms: C3_8  and  C7_12 
REMARK   17  A    between atoms: C3_8  and  C15_20 
REMARK   18  A    between atoms: C3_8  and  C17_22 
REMARK   19  A    between atoms: C4_9  and  C6_11 
REMARK   20  A    between atoms: C4_9  and  C7_12 
REMARK   21  A    between atoms: C4_9  and  C12_17 
REMARK   22  A    between atoms: C5_10  and  C6_11 
REMARK   23  A    between atoms: C5_10  and  C11_16 
REMARK   24  A    between atoms: C6_11  and  C9_14 
REMARK   25  A    between atoms: C6_11  and  C12_17 
REMARK   26  A    between atoms: C7_12  and  C10_15 
REMARK   27  A    between atoms: C8_13  and  C9_14 
REMARK   28  A    between atoms: C8_13  and  C15_20 
REMARK   29  A    between atoms: C9_14  and  C12_17 
REMARK   30  A    between atoms: C9_14  and  C17_22 
REMARK   31  A    between atoms: C10_15  and  C13_18 
REMARK   32  A    between atoms: C11_16  and  C14_19 
REMARK   33  A    between atoms: C12_17  and  C19_24 
REMARK   34  A    between atoms: C13_18  and  C19_24 
REMARK   35  A    between atoms: C14_19  and  C15_20 
REMARK   36  A    between atoms: C14_19  and  C16_21 
REMARK   37  A    between atoms: C14_19  and  C22_27 
REMARK   38  A    between atoms: C15_20  and  C21_26 
REMARK   39  A    between atoms: C15_20  and  C23_28 
REMARK   40  A    between atoms: C16_21  and  C17_22 
REMARK   41  A    between atoms: C16_21  and  C22_27 
REMARK   42  A    between atoms: C20_25  and  C21_26 
REMARK   43  A    between atoms: C21_26  and  C22_27 
ROOT
HETATM    1  S1  UNL     1     -39.709  11.464  48.294  1.00  0.00    -0.237 SA
HETATM    2  O1  UNL     1     -39.566  14.515  49.860  1.00  0.00     0.000 OA
HETATM    3  O2  UNL     1     -39.615  15.835  50.505  1.00  0.00    -0.361 OA
HETATM    4  O3  UNL     1     -35.427  10.445  49.057  1.00  0.00     0.000 OA
HETATM    5  O4  UNL     1     -39.188  10.219  47.827  1.00  0.00     0.000 OA
HETATM    6  C1  UNL     1     -39.392  13.645  49.477  1.00  0.00     0.020 A 
HETATM    7  C2  UNL     1     -39.491  12.924  49.088  1.00  0.00     0.013 A 
HETATM    8  C3  UNL     1     -38.856  12.403  49.016  1.00  0.00     0.009 A 
HETATM    9  C4  UNL     1     -40.111  14.040  49.461  1.00  0.00     0.045 A 
HETATM   10  C5  UNL     1     -38.120  12.603  49.335  1.00  0.00     0.012 A 
HETATM   11  C6  UNL     1     -38.658  13.844  49.795  1.00  0.00     0.017 A 
HETATM   12  C7  UNL     1     -40.270  12.880  48.834  1.00  0.00     0.015 A 
HETATM   13  C8  UNL     1     -37.451  12.069  49.267  1.00  0.00     0.010 A 
HETATM   14  C9  UNL     1     -38.022  13.323  49.724  1.00  0.00     0.013 A 
HETATM   15  C10 UNL     1     -40.652  13.568  49.065  1.00  0.00     0.019 A 
HETATM   16  C11 UNL     1     -38.971  11.655  48.608  1.00  0.00     0.015 A 
HETATM   17  C12 UNL     1     -39.028  14.258  49.892  1.00  0.00     0.031 A 
HETATM   18  C13 UNL     1     -40.833  14.438  49.445  1.00  0.00     0.052 A 
HETATM   19  C14 UNL     1     -37.547  11.316  48.862  1.00  0.00     0.012 A 
HETATM   20  C15 UNL     1     -38.313  11.109  48.531  1.00  0.00     0.013 A 
HETATM   21  C16 UNL     1     -36.662  12.302  49.618  1.00  0.00     0.005 A 
HETATM   22  C17 UNL     1     -37.358  12.790  49.655  1.00  0.00     0.008 A 
HETATM   23  C18 UNL     1     -40.735  15.159  49.834  1.00  0.00     0.118 A 
HETATM   24  C19 UNL     1     -39.952  15.206  50.091  1.00  0.00     0.100 A 
HETATM   25  C20 UNL     1     -35.964  11.746  49.548  1.00  0.00     0.002 A 
HETATM   26  C21 UNL     1     -36.862  10.746  48.781  1.00  0.00     0.007 A 
HETATM   27  C22 UNL     1     -36.065  10.963  49.126  1.00  0.00     0.002 A 
HETATM   28  C23 UNL     1     -39.817  10.746  47.903  1.00  0.00     0.028 A 
HETATM   29  C24 UNL     1     -40.556  10.555  47.588  1.00  0.00     0.032 A 
ENDROOT
TORSDOF 43
ENDMDL
