MODEL 1
REMARK VINA RESULT:     334.7      0.000      0.000
REMARK  11 active torsions:
REMARK  status: ('A' for Active; 'I' for Inactive)
REMARK    1  A    between atoms: N1_5  and  C8_17 
REMARK    2  A    between atoms: N2_6  and  C6_15 
REMARK    3  A    between atoms: N2_6  and  C9_18 
REMARK    4  A    between atoms: N3_7  and  N4_8 
REMARK    5  A    between atoms: N4_8  and  N5_9 
REMARK    6  A    between atoms: C2_11  and  C5_14 
REMARK    7  A    between atoms: C3_12  and  C4_13 
REMARK    8  A    between atoms: C4_13  and  C5_14 
REMARK    9  A    between atoms: C6_15  and  C7_16 
REMARK   10  A    between atoms: C6_15  and  C9_18 
REMARK   11  A    between atoms: C8_17  and  C12_21 
ROOT
HETATM    1  O1  UNL     1     -40.188  13.584  48.710  1.00  0.00     0.000 OA
HETATM    2  O2  UNL     1     -40.200  14.711  49.589  1.00  0.00     0.000 OA
HETATM    3  O3  UNL     1     -40.176  12.457  47.831  1.00  0.00    -0.352 OA
HETATM    4  O4  UNL     1     -40.213  15.837  50.468  1.00  0.00    -0.352 OA
HETATM    5  N1  UNL     1     -37.207  12.733  49.841  1.00  0.00     0.000 N 
HETATM    6  N2  UNL     1     -36.070  12.733  50.528  1.00  0.00     0.000 N 
HETATM    7  N3  UNL     1     -36.913  11.493  49.043  1.00  0.00     0.000 N 
HETATM    8  N4  UNL     1     -35.648  10.901  49.341  1.00  0.00     0.000 N 
HETATM    9  N5  UNL     1     -36.500  10.308  48.360  1.00  0.00    -0.135 NA
HETATM   10  C1  UNL     1     -39.076  13.828  49.574  1.00  0.00     0.005 A 
HETATM   11  C2  UNL     1     -38.331  13.616  49.857  1.00  0.00     0.005 A 
HETATM   12  C3  UNL     1     -37.952  12.946  49.559  1.00  0.00     0.004 A 
HETATM   13  C4  UNL     1     -39.443  13.371  48.993  1.00  0.00     0.028 A 
HETATM   14  C5  UNL     1     -39.455  14.498  49.872  1.00  0.00     0.030 A 
HETATM   15  C6  UNL     1     -36.766  12.086  49.598  1.00  0.00     0.017 A 
HETATM   16  C7  UNL     1     -36.777  13.132  50.415  1.00  0.00     0.003 A 
HETATM   17  C8  UNL     1     -36.060  12.086  50.024  1.00  0.00     0.018 A 
HETATM   18  C9  UNL     1     -35.500  11.493  49.896  1.00  0.00     0.019 A 
HETATM   19  C10 UNL     1     -40.555  13.127  48.129  1.00  0.00     0.145 A 
HETATM   20  C11 UNL     1     -40.579  15.380  49.887  1.00  0.00     0.145 A 
HETATM   21  C12 UNL     1     -36.354  10.901  48.915  1.00  0.00     0.077 A 
HETATM   22  C13 UNL     1     -41.300  13.340  47.847  1.00  0.00     0.172 A 
HETATM   23  C14 UNL     1     -41.324  15.592  49.604  1.00  0.00     0.172 A 
ENDROOT
TORSDOF 11
ENDMDL
MODEL 2
REMARK VINA RESULT:     336.5      2.508      4.576
REMARK  11 active torsions:
REMARK  status: ('A' for Active; 'I' for Inactive)
REMARK    1  A    between atoms: N1_5  and  C8_17 
REMARK    2  A    between atoms: N2_6  and  C6_15 
REMARK    3  A    between atoms: N2_6  and  C9_18 
REMARK    4  A    between atoms: N3_7  and  N4_8 
REMARK    5  A    between atoms: N4_8  and  N5_9 
REMARK    6  A    between atoms: C2_11  and  C5_14 
REMARK    7  A    between atoms: C3_12  and  C4_13 
REMARK    8  A    between atoms: C4_13  and  C5_14 
REMARK    9  A    between atoms: C6_15  and  C7_16 
REMARK   10  A    between atoms: C6_15  and  C9_18 
REMARK   11  A    between atoms: C8_17  and  C12_21 
ROOT
HETATM    1  O1  UNL     1     -37.705  11.425  48.563  1.00  0.00     0.000 OA
HETATM    2  O2  UNL     1     -36.591  11.488  49.458  1.00  0.00     0.000 OA
HETATM    3  O3  UNL     1     -38.818  11.361  47.669  1.00  0.00    -0.352 OA
HETATM    4  O4  UNL     1     -35.478  11.552  50.351  1.00  0.00    -0.352 OA
HETATM    5  N1  UNL     1     -38.856  14.262  49.795  1.00  0.00     0.000 N 
HETATM    6  N2  UNL     1     -38.974  15.365  50.524  1.00  0.00     0.000 N 
HETATM    7  N3  UNL     1     -40.110  14.464  48.991  1.00  0.00     0.000 N 
HETATM    8  N4  UNL     1     -40.827  15.653  49.329  1.00  0.00     0.000 N 
HETATM    9  N5  UNL     1     -41.323  14.786  48.307  1.00  0.00    -0.135 NA
HETATM   10  C1  UNL     1     -37.580  12.521  49.473  1.00  0.00     0.005 A 
HETATM   11  C2  UNL     1     -37.867  13.230  49.781  1.00  0.00     0.005 A 
HETATM   12  C3  UNL     1     -38.568  13.553  49.487  1.00  0.00     0.004 A 
HETATM   13  C4  UNL     1     -37.992  12.134  48.871  1.00  0.00     0.028 A 
HETATM   14  C5  UNL     1     -36.879  12.197  49.765  1.00  0.00     0.030 A 
HETATM   15  C6  UNL     1     -39.541  14.646  49.559  1.00  0.00     0.017 A 
HETATM   16  C7  UNL     1     -38.507  14.705  50.390  1.00  0.00     0.003 A 
HETATM   17  C8  UNL     1     -39.615  15.331  50.012  1.00  0.00     0.018 A 
HETATM   18  C9  UNL     1     -40.258  15.835  49.897  1.00  0.00     0.019 A 
HETATM   19  C10 UNL     1     -38.117  11.038  47.962  1.00  0.00     0.145 A 
HETATM   20  C11 UNL     1     -35.891  11.165  49.750  1.00  0.00     0.145 A 
HETATM   21  C12 UNL     1     -40.753  14.967  48.876  1.00  0.00     0.077 A 
HETATM   22  C13 UNL     1     -37.829  10.329  47.655  1.00  0.00     0.172 A 
HETATM   23  C14 UNL     1     -35.603  10.456  49.443  1.00  0.00     0.172 A 
ENDROOT
TORSDOF 11
ENDMDL
