MODEL 1
REMARK VINA RESULT:     161.4      0.000      0.000
REMARK  18 active torsions:
REMARK  status: ('A' for Active; 'I' for Inactive)
REMARK    1  A    between atoms: O1_1  and  C2_12 
REMARK    2  A    between atoms: O1_1  and  C6_16 
REMARK    3  A    between atoms: O2_2  and  C3_13 
REMARK    4  A    between atoms: O3_3  and  C4_14 
REMARK    5  A    between atoms: O6_6  and  N2_9 
REMARK    6  A    between atoms: O6_6  and  C5_15 
REMARK    7  A    between atoms: N1_8  and  N2_9 
REMARK    8  A    between atoms: N1_8  and  C5_15 
REMARK    9  A    between atoms: N2_9  and  C7_17 
REMARK   10  A    between atoms: N3_10  and  C7_17 
REMARK   11  A    between atoms: C1_11  and  C4_14 
REMARK   12  A    between atoms: C1_11  and  C5_15 
REMARK   13  A    between atoms: C2_12  and  C3_13 
REMARK   14  A    between atoms: C2_12  and  C4_14 
REMARK   15  A    between atoms: C3_13  and  C5_15 
REMARK   16  A    between atoms: C3_13  and  C6_16 
REMARK   17  A    between atoms: C5_15  and  C7_17 
REMARK   18  A    between atoms: C7_17  and  C8_18 
ROOT
HETATM    1  O1  UNL     1     -40.825  11.951  47.933  1.00  0.00     0.000 OA
HETATM    2  O2  UNL     1     -38.522  12.862  47.926  1.00  0.00     0.000 OA
HETATM    3  O3  UNL     1     -38.786  11.281  47.528  1.00  0.00     0.000 OA
HETATM    4  O4  UNL     1     -41.327  13.228  48.333  1.00  0.00     0.000 OA
HETATM    5  O5  UNL     1     -41.088  10.372  47.536  1.00  0.00    -0.361 OA
HETATM    6  O6  UNL     1     -41.195  14.018  48.531  1.00  0.00     0.000 OA
HETATM    7  N1  UNL     1     -39.793  13.835  48.328  1.00  0.00     0.000 N 
HETATM    8  C1  UNL     1     -39.290  12.558  47.928  1.00  0.00     0.034 A 
HETATM    9  C2  UNL     1     -39.925  13.045  48.129  1.00  0.00     0.061 A 
HETATM   10  C3  UNL     1     -39.422  11.768  47.730  1.00  0.00     0.054 A 
HETATM   11  C4  UNL     1     -40.189  11.464  47.732  1.00  0.00     0.086 A 
HETATM   12  C5  UNL     1     -40.693  12.741  48.132  1.00  0.00     0.061 A 
HETATM   13  C6  UNL     1     -40.321  10.674  47.533  1.00  0.00     0.138 A 
HETATM   14  C7  UNL     1     -40.429  14.321  48.529  1.00  0.00     0.267 A 
ENDROOT
BRANCH   6  15
HETATM   15  N2  UNL     1     -40.297  15.110  48.728  1.00  0.00     0.000 N 
HETATM   16  N3  UNL     1     -40.601  15.225  49.486  1.00  0.00     0.302 N 
HETATM   17  O7  UNL     1     -40.304  15.829  49.963  1.00  0.00     0.032 OA
HETATM   18  C8  UNL     1     -39.694  15.600  48.446  1.00  0.00     0.327 A 
ENDBRANCH   6  15
TORSDOF 18
ENDMDL
