MODEL 1
REMARK VINA RESULT:     190.9      0.000      0.000
REMARK  23 active torsions:
REMARK  status: ('A' for Active; 'I' for Inactive)
REMARK    1  A    between atoms: F1_1  and  C6_16 
REMARK    2  A    between atoms: F1_1  and  C8_18 
REMARK    3  A    between atoms: F3_3  and  C8_18 
REMARK    4  A    between atoms: O1_4  and  C2_12 
REMARK    5  A    between atoms: O1_4  and  C5_15 
REMARK    6  A    between atoms: O2_5  and  C4_14 
REMARK    7  A    between atoms: O4_7  and  C3_13 
REMARK    8  A    between atoms: O5_8  and  C8_18 
REMARK    9  A    between atoms: N1_9  and  N2_10 
REMARK   10  A    between atoms: N2_10  and  C8_18 
REMARK   11  A    between atoms: C1_11  and  C2_12 
REMARK   12  A    between atoms: C1_11  and  C7_17 
REMARK   13  A    between atoms: C2_12  and  C4_14 
REMARK   14  A    between atoms: C2_12  and  C5_15 
REMARK   15  A    between atoms: C3_13  and  C4_14 
REMARK   16  A    between atoms: C6_16  and  C7_17 
REMARK   17  A    between atoms: C6_16  and  C9_19 
REMARK   18  A    between atoms: C6_16  and  C10_20 
REMARK   19  A    between atoms: C7_17  and  C8_18 
REMARK   20  A    between atoms: C7_17  and  C9_19 
REMARK   21  A    between atoms: C8_18  and  C9_19 
REMARK   22  A    between atoms: C8_18  and  C10_20 
REMARK   23  A    between atoms: C9_19  and  C10_20 
ROOT
HETATM    1  F1  UNL     1     -40.179  13.398  49.563  1.00  0.00    -0.378 F 
HETATM    2  F2  UNL     1     -41.312  13.635  49.417  1.00  0.00    -0.271 F 
HETATM    3  F3  UNL     1     -41.117  14.747  49.709  1.00  0.00    -0.376 F 
HETATM    4  O1  UNL     1     -37.685  13.422  50.010  1.00  0.00     0.000 OA
HETATM    5  O2  UNL     1     -35.739  14.137  50.521  1.00  0.00     0.000 OA
HETATM    6  O3  UNL     1     -36.896  11.904  49.799  1.00  0.00    -0.359 OA
HETATM    7  O4  UNL     1     -37.991  15.823  50.512  1.00  0.00     0.000 OA
HETATM    8  O5  UNL     1     -40.795  15.679  49.982  1.00  0.00     0.000 OA
HETATM    9  N1  UNL     1     -38.581  14.582  50.120  1.00  0.00     0.000 N 
HETATM   10  N2  UNL     1     -39.394  15.751  50.247  1.00  0.00     0.000 N 
HETATM   11  C1  UNL     1     -37.843  14.217  50.166  1.00  0.00     0.067 A 
HETATM   12  C2  UNL     1     -36.537  14.012  50.350  1.00  0.00     0.058 A 
HETATM   13  C3  UNL     1     -37.133  14.581  50.376  1.00  0.00     0.035 A 
HETATM   14  C4  UNL     1     -36.878  13.296  50.124  1.00  0.00     0.102 A 
HETATM   15  C5  UNL     1     -36.480  12.579  50.029  1.00  0.00     0.140 A 
HETATM   16  C6  UNL     1     -39.245  14.145  49.901  1.00  0.00     0.182 A 
HETATM   17  C7  UNL     1     -38.656  15.385  50.293  1.00  0.00     0.121 A 
HETATM   18  C8  UNL     1     -39.983  14.510  49.855  1.00  0.00     0.209 A 
HETATM   19  C9  UNL     1     -40.057  15.313  50.028  1.00  0.00     0.205 A 
HETATM   20  C10 UNL     1     -40.647  14.072  49.636  1.00  0.00     0.264 A 
ENDROOT
TORSDOF 23
ENDMDL
