MODEL 1
REMARK VINA RESULT:     275.9      0.000      0.000
REMARK  27 active torsions:
REMARK  status: ('A' for Active; 'I' for Inactive)
REMARK    1  A    between atoms: N1_1  and  C3_4 
REMARK    2  A    between atoms: C1_2  and  C5_6 
REMARK    3  A    between atoms: C1_2  and  C12_13 
REMARK    4  A    between atoms: C1_2  and  C13_14 
REMARK    5  A    between atoms: C2_3  and  C5_6 
REMARK    6  A    between atoms: C2_3  and  C7_8 
REMARK    7  A    between atoms: C2_3  and  C12_13 
REMARK    8  A    between atoms: C3_4  and  C5_6 
REMARK    9  A    between atoms: C3_4  and  C4_5 
REMARK   10  A    between atoms: C3_4  and  C6_7 
REMARK   11  A    between atoms: C3_4  and  C8_9 
REMARK   12  A    between atoms: C3_4  and  C13_14 
REMARK   13  A    between atoms: C5_6  and  C9_10 
REMARK   14  A    between atoms: C7_8  and  C8_9 
REMARK   15  A    between atoms: C10_11  and  C12_13 
REMARK   16  A    between atoms: C10_11  and  C15_16 
REMARK   17  A    between atoms: C11_12  and  C13_14 
REMARK   18  A    between atoms: C11_12  and  C14_15 
REMARK   19  A    between atoms: C12_13  and  C20_21 
REMARK   20  A    between atoms: C13_14  and  C21_22 
REMARK   21  A    between atoms: C14_15  and  C15_16 
REMARK   22  A    between atoms: C14_15  and  C16_17 
REMARK   23  A    between atoms: C15_16  and  C17_18 
REMARK   24  A    between atoms: C16_17  and  C18_19 
REMARK   25  A    between atoms: C17_18  and  C19_20 
REMARK   26  A    between atoms: C18_19  and  C20_21 
REMARK   27  A    between atoms: C19_20  and  C21_22 
ROOT
HETATM    1  N1  UNL     1     -37.347  12.988  49.842  1.00  0.00     0.000 N 
HETATM    2  C1  UNL     1     -38.866  13.469  49.414  1.00  0.00     0.000 A 
HETATM    3  C2  UNL     1     -38.431  13.913  49.955  1.00  0.00     0.000 A 
HETATM    4  C3  UNL     1     -38.543  12.784  49.085  1.00  0.00     0.000 A 
HETATM    5  C4  UNL     1     -37.672  13.672  50.169  1.00  0.00     0.000 A 
HETATM    6  C5  UNL     1     -37.784  12.544  49.300  1.00  0.00     0.000 A 
HETATM    7  C6  UNL     1     -39.626  13.710  49.199  1.00  0.00     0.000 A 
HETATM    8  C7  UNL     1     -39.897  14.401  49.559  1.00  0.00     0.000 A 
HETATM    9  C8  UNL     1     -40.014  13.226  48.654  1.00  0.00     0.000 A 
HETATM   10  C9  UNL     1     -36.588  12.747  50.056  1.00  0.00     0.000 A 
HETATM   11  C10 UNL     1     -40.624  14.780  49.461  1.00  0.00     0.000 A 
HETATM   12  C11 UNL     1     -40.769  13.317  48.333  1.00  0.00     0.000 A 
HETATM   13  C12 UNL     1     -39.302  14.718  50.091  1.00  0.00     0.000 A 
HETATM   14  C13 UNL     1     -39.516  12.563  48.430  1.00  0.00     0.000 A 
HETATM   15  C14 UNL     1     -41.258  14.562  48.981  1.00  0.00     0.000 A 
HETATM   16  C15 UNL     1     -41.323  13.911  48.478  1.00  0.00     0.000 A 
HETATM   17  C16 UNL     1     -40.805  15.502  49.889  1.00  0.00     0.000 A 
HETATM   18  C17 UNL     1     -41.078  12.748  47.766  1.00  0.00     0.000 A 
HETATM   19  C18 UNL     1     -39.465  15.440  50.528  1.00  0.00     0.000 A 
HETATM   20  C19 UNL     1     -39.807  11.985  47.865  1.00  0.00     0.000 A 
HETATM   21  C20 UNL     1     -40.221  15.835  50.426  1.00  0.00     0.000 A 
HETATM   22  C21 UNL     1     -40.594  12.079  47.531  1.00  0.00     0.000 A 
ENDROOT
TORSDOF 27
ENDMDL
