MODEL 1
REMARK VINA RESULT:     239.1      0.000      0.000
REMARK  29 active torsions:
REMARK  status: ('A' for Active; 'I' for Inactive)
REMARK    1  A    between atoms: O1_1  and  C8_15 
REMARK    2  A    between atoms: O1_1  and  C14_21 
REMARK    3  A    between atoms: O2_2  and  C8_15 
REMARK    4  A    between atoms: O3_3  and  C7_14 
REMARK    5  A    between atoms: N1_4  and  N2_5 
REMARK    6  A    between atoms: N1_4  and  C3_10 
REMARK    7  A    between atoms: N2_5  and  N4_7 
REMARK    8  A    between atoms: N3_6  and  C3_10 
REMARK    9  A    between atoms: C1_8  and  C9_16 
REMARK   10  A    between atoms: C1_8  and  C10_17 
REMARK   11  A    between atoms: C2_9  and  C6_13 
REMARK   12  A    between atoms: C2_9  and  C7_14 
REMARK   13  A    between atoms: C2_9  and  C8_15 
REMARK   14  A    between atoms: C2_9  and  C10_17 
REMARK   15  A    between atoms: C3_10  and  C9_16 
REMARK   16  A    between atoms: C3_10  and  C4_11 
REMARK   17  A    between atoms: C3_10  and  C11_18 
REMARK   18  A    between atoms: C4_11  and  C5_12 
REMARK   19  A    between atoms: C4_11  and  C6_13 
REMARK   20  A    between atoms: C4_11  and  C8_15 
REMARK   21  A    between atoms: C4_11  and  C10_17 
REMARK   22  A    between atoms: C4_11  and  C13_20 
REMARK   23  A    between atoms: C5_12  and  C7_14 
REMARK   24  A    between atoms: C5_12  and  C8_15 
REMARK   25  A    between atoms: C5_12  and  C12_19 
REMARK   26  A    between atoms: C6_13  and  C7_14 
REMARK   27  A    between atoms: C6_13  and  C14_21 
REMARK   28  A    between atoms: C7_14  and  C8_15 
REMARK   29  A    between atoms: C9_16  and  C10_17 
ROOT
HETATM    1  O1  UNL     1     -36.523  11.720  50.525  1.00  0.00     0.000 OA
HETATM    2  O2  UNL     1     -39.381  11.685  50.527  1.00  0.00     0.000 OA
HETATM    3  O3  UNL     1     -37.942  10.877  50.526  1.00  0.00     0.000 OA
HETATM    4  N1  UNL     1     -39.431  15.811  50.525  1.00  0.00     0.000 N 
HETATM    5  N2  UNL     1     -40.130  14.564  50.526  1.00  0.00     0.000 N 
HETATM    6  N3  UNL     1     -38.002  15.828  50.525  1.00  0.00    -0.223 NA
HETATM    7  N4  UNL     1     -40.860  15.793  50.526  1.00  0.00    -0.132 NA
HETATM    8  C1  UNL     1     -37.982  14.177  50.525  1.00  0.00     0.029 A 
HETATM    9  C2  UNL     1     -37.972  13.352  50.525  1.00  0.00     0.015 A 
HETATM   10  C3  UNL     1     -38.701  14.582  50.525  1.00  0.00     0.058 A 
HETATM   11  C4  UNL     1     -38.681  12.932  50.526  1.00  0.00     0.015 A 
HETATM   12  C5  UNL     1     -37.253  12.949  50.525  1.00  0.00     0.005 A 
HETATM   13  C6  UNL     1     -37.243  12.124  50.525  1.00  0.00     0.003 A 
HETATM   14  C7  UNL     1     -38.671  12.107  50.526  1.00  0.00     0.003 A 
HETATM   15  C8  UNL     1     -37.952  11.702  50.526  1.00  0.00     0.003 A 
HETATM   16  C9  UNL     1     -38.711  15.406  50.525  1.00  0.00     0.077 A 
HETATM   17  C10 UNL     1     -39.411  14.160  50.526  1.00  0.00     0.042 A 
HETATM   18  C11 UNL     1     -40.140  15.389  50.526  1.00  0.00     0.104 A 
HETATM   19  C12 UNL     1     -35.814  12.141  50.525  1.00  0.00     0.000 A 
HETATM   20  C13 UNL     1     -40.100  12.089  50.527  1.00  0.00     0.001 A 
HETATM   21  C14 UNL     1     -37.223  10.474  50.526  1.00  0.00     0.000 A 
ENDROOT
TORSDOF 29
ENDMDL
