MODEL 1
REMARK VINA RESULT:     458.1      0.000      0.000
REMARK  30 active torsions:
REMARK  status: ('A' for Active; 'I' for Inactive)
REMARK    1  A    between atoms: O1_1  and  C7_12 
REMARK    2  A    between atoms: O3_3  and  C2_7 
REMARK    3  A    between atoms: N1_4  and  C3_8 
REMARK    4  A    between atoms: N2_5  and  C11_16 
REMARK    5  A    between atoms: C2_7  and  C5_10 
REMARK    6  A    between atoms: C2_7  and  C7_12 
REMARK    7  A    between atoms: C2_7  and  C15_20 
REMARK    8  A    between atoms: C4_9  and  C6_11 
REMARK    9  A    between atoms: C5_10  and  C6_11 
REMARK   10  A    between atoms: C7_12  and  C13_18 
REMARK   11  A    between atoms: C8_13  and  C12_17 
REMARK   12  A    between atoms: C8_13  and  C13_18 
REMARK   13  A    between atoms: C8_13  and  C14_19 
REMARK   14  A    between atoms: C8_13  and  C16_21 
REMARK   15  A    between atoms: C9_14  and  C10_15 
REMARK   16  A    between atoms: C9_14  and  C14_19 
REMARK   17  A    between atoms: C10_15  and  C11_16 
REMARK   18  A    between atoms: C10_15  and  C13_18 
REMARK   19  A    between atoms: C10_15  and  C16_21 
REMARK   20  A    between atoms: C11_16  and  C12_17 
REMARK   21  A    between atoms: C11_16  and  C17_22 
REMARK   22  A    between atoms: C13_18  and  C14_19 
REMARK   23  A    between atoms: C14_19  and  C16_21 
REMARK   24  A    between atoms: C18_23  and  C23_28 
REMARK   25  A    between atoms: C19_24  and  C20_25 
REMARK   26  A    between atoms: C19_24  and  C22_27 
REMARK   27  A    between atoms: C20_25  and  C21_26 
REMARK   28  A    between atoms: C20_25  and  C23_28 
REMARK   29  A    between atoms: C21_26  and  C22_27 
REMARK   30  A    between atoms: C22_27  and  C23_28 
ROOT
HETATM    1  O1  UNL     1     -38.689  13.928  49.600  1.00  0.00     0.000 OA
HETATM    2  O2  UNL     1     -38.231  12.524  48.864  1.00  0.00     0.000 OA
HETATM    3  O3  UNL     1     -38.347  15.133  50.287  1.00  0.00     0.000 OA
HETATM    4  N1  UNL     1     -36.520  14.032  49.824  1.00  0.00     0.000 N 
HETATM    5  N2  UNL     1     -39.024  10.237  47.547  1.00  0.00     0.000 N 
HETATM    6  C1  UNL     1     -35.950  14.535  50.144  1.00  0.00     0.000 A 
HETATM    7  C2  UNL     1     -37.319  14.232  49.872  1.00  0.00     0.000 A 
HETATM    8  C3  UNL     1     -37.890  13.728  49.551  1.00  0.00     0.000 A 
HETATM    9  C4  UNL     1     -35.379  15.037  50.464  1.00  0.00     0.000 A 
HETATM   10  C5  UNL     1     -36.543  15.055  50.384  1.00  0.00     0.000 A 
HETATM   11  C6  UNL     1     -35.356  14.014  49.904  1.00  0.00     0.000 A 
HETATM   12  C7  UNL     1     -37.661  13.026  49.184  1.00  0.00     0.000 A 
HETATM   13  C8  UNL     1     -38.574  11.319  48.176  1.00  0.00     0.000 A 
HETATM   14  C9  UNL     1     -38.002  11.821  48.496  1.00  0.00     0.000 A 
HETATM   15  C10 UNL     1     -38.345  10.617  47.808  1.00  0.00     0.000 A 
HETATM   16  C11 UNL     1     -39.392  11.366  48.139  1.00  0.00     0.000 A 
HETATM   17  C12 UNL     1     -39.669  10.700  47.751  1.00  0.00     0.000 A 
HETATM   18  C13 UNL     1     -37.204  11.622  48.448  1.00  0.00     0.000 A 
HETATM   19  C14 UNL     1     -37.545  10.417  47.760  1.00  0.00     0.000 A 
HETATM   20  C15 UNL     1     -38.917  14.631  49.968  1.00  0.00     0.000 A 
HETATM   21  C16 UNL     1     -36.975  10.920  48.080  1.00  0.00     0.000 A 
HETATM   22  C17 UNL     1     -40.460  10.525  47.594  1.00  0.00     0.000 A 
HETATM   23  C18 UNL     1     -39.717  14.829  50.015  1.00  0.00     0.000 A 
HETATM   24  C19 UNL     1     -40.288  14.327  49.695  1.00  0.00     0.000 A 
HETATM   25  C20 UNL     1     -39.945  15.532  50.383  1.00  0.00     0.000 A 
HETATM   26  C21 UNL     1     -41.086  14.526  49.743  1.00  0.00     0.000 A 
HETATM   27  C22 UNL     1     -40.745  15.731  50.431  1.00  0.00     0.000 A 
HETATM   28  C23 UNL     1     -41.315  15.228  50.111  1.00  0.00     0.000 A 
ENDROOT
TORSDOF 30
ENDMDL
