MODEL 1
REMARK VINA RESULT:     157.0      0.000      0.000
REMARK  17 active torsions:
REMARK  status: ('A' for Active; 'I' for Inactive)
REMARK    1  A    between atoms: F2_2  and  N1_7 
REMARK    2  A    between atoms: F2_2  and  C4_13 
REMARK    3  A    between atoms: F2_2  and  C6_15 
REMARK    4  A    between atoms: O1_3  and  C2_11 
REMARK    5  A    between atoms: O1_3  and  C5_14 
REMARK    6  A    between atoms: O2_4  and  C3_12 
REMARK    7  A    between atoms: N1_7  and  N2_8 
REMARK    8  A    between atoms: N2_8  and  C8_17 
REMARK    9  A    between atoms: N3_9  and  C8_17 
REMARK   10  A    between atoms: C1_10  and  C4_13 
REMARK   11  A    between atoms: C1_10  and  C5_14 
REMARK   12  A    between atoms: C2_11  and  C3_12 
REMARK   13  A    between atoms: C4_13  and  C7_16 
REMARK   14  A    between atoms: C6_15  and  C7_16 
REMARK   15  A    between atoms: C6_15  and  C9_18 
REMARK   16  A    between atoms: C7_16  and  C8_17 
REMARK   17  A    between atoms: C8_17  and  C9_18 
ROOT
HETATM    1  F1  UNL     1     -38.290  12.562  50.519  1.00  0.00    -0.368 F 
HETATM    2  F2  UNL     1     -38.994  13.230  50.518  1.00  0.00    -0.433 F 
HETATM    3  O1  UNL     1     -37.608  14.586  50.518  1.00  0.00     0.000 OA
HETATM    4  O2  UNL     1     -36.971  12.548  50.520  1.00  0.00     0.000 OA
HETATM    5  O3  UNL     1     -35.924  14.946  50.520  1.00  0.00    -0.346 OA
HETATM    6  O4  UNL     1     -38.463  15.836  50.517  1.00  0.00     0.000 OA
HETATM    7  N1  UNL     1     -39.077  14.547  50.517  1.00  0.00     0.000 N 
HETATM    8  N2  UNL     1     -39.887  15.725  50.516  1.00  0.00     0.000 N 
HETATM    9  N3  UNL     1     -41.311  15.612  50.514  1.00  0.00    -0.216 NA
HETATM   10  C1  UNL     1     -37.365  13.273  50.519  1.00  0.00     0.198 A 
HETATM   11  C2  UNL     1     -38.182  13.381  50.518  1.00  0.00     0.212 A 
HETATM   12  C3  UNL     1     -37.010  14.018  50.519  1.00  0.00     0.197 A 
HETATM   13  C4  UNL     1     -38.333  14.192  50.518  1.00  0.00     0.160 A 
HETATM   14  C5  UNL     1     -36.198  14.168  50.520  1.00  0.00     0.182 A 
HETATM   15  C6  UNL     1     -39.758  14.080  50.517  1.00  0.00     0.115 A 
HETATM   16  C7  UNL     1     -39.143  15.370  50.517  1.00  0.00     0.089 A 
HETATM   17  C8  UNL     1     -40.502  14.435  50.516  1.00  0.00     0.105 A 
HETATM   18  C9  UNL     1     -40.567  15.257  50.515  1.00  0.00     0.105 A 
ENDROOT
TORSDOF 17
ENDMDL
MODEL 2
REMARK VINA RESULT:     157.3      1.231      1.742
REMARK  17 active torsions:
REMARK  status: ('A' for Active; 'I' for Inactive)
REMARK    1  A    between atoms: F2_2  and  N1_7 
REMARK    2  A    between atoms: F2_2  and  C4_13 
REMARK    3  A    between atoms: F2_2  and  C6_15 
REMARK    4  A    between atoms: O1_3  and  C2_11 
REMARK    5  A    between atoms: O1_3  and  C5_14 
REMARK    6  A    between atoms: O2_4  and  C3_12 
REMARK    7  A    between atoms: N1_7  and  N2_8 
REMARK    8  A    between atoms: N2_8  and  C8_17 
REMARK    9  A    between atoms: N3_9  and  C8_17 
REMARK   10  A    between atoms: C1_10  and  C4_13 
REMARK   11  A    between atoms: C1_10  and  C5_14 
REMARK   12  A    between atoms: C2_11  and  C3_12 
REMARK   13  A    between atoms: C4_13  and  C7_16 
REMARK   14  A    between atoms: C6_15  and  C7_16 
REMARK   15  A    between atoms: C6_15  and  C9_18 
REMARK   16  A    between atoms: C7_16  and  C8_17 
REMARK   17  A    between atoms: C8_17  and  C9_18 
ROOT
HETATM    1  F1  UNL     1     -37.082  15.049  50.476  1.00  0.00    -0.368 F 
HETATM    2  F2  UNL     1     -38.029  15.256  50.425  1.00  0.00    -0.433 F 
HETATM    3  O1  UNL     1     -38.371  13.347  50.407  1.00  0.00     0.000 OA
HETATM    4  O2  UNL     1     -36.330  13.965  50.516  1.00  0.00     0.000 OA
HETATM    5  O3  UNL     1     -37.724  11.752  50.441  1.00  0.00    -0.346 OA
HETATM    6  O4  UNL     1     -39.884  13.352  50.327  1.00  0.00     0.000 OA
HETATM    7  N1  UNL     1     -39.164  14.585  50.365  1.00  0.00     0.000 N 
HETATM    8  N2  UNL     1     -40.591  14.593  50.289  1.00  0.00     0.000 N 
HETATM    9  N3  UNL     1     -41.297  15.834  50.251  1.00  0.00    -0.216 NA
HETATM   10  C1  UNL     1     -37.151  13.884  50.472  1.00  0.00     0.198 A 
HETATM   11  C2  UNL     1     -37.698  14.500  50.443  1.00  0.00     0.212 A 
HETATM   12  C3  UNL     1     -37.567  13.172  50.450  1.00  0.00     0.197 A 
HETATM   13  C4  UNL     1     -38.453  14.168  50.403  1.00  0.00     0.160 A 
HETATM   14  C5  UNL     1     -37.235  12.416  50.468  1.00  0.00     0.182 A 
HETATM   15  C6  UNL     1     -39.160  15.410  50.365  1.00  0.00     0.115 A 
HETATM   16  C7  UNL     1     -39.880  14.177  50.327  1.00  0.00     0.089 A 
HETATM   17  C8  UNL     1     -39.871  15.827  50.327  1.00  0.00     0.105 A 
HETATM   18  C9  UNL     1     -40.586  15.417  50.289  1.00  0.00     0.105 A 
ENDROOT
TORSDOF 17
ENDMDL
