MODEL 1
REMARK VINA RESULT:     237.0      0.000      0.000
REMARK  26 active torsions:
REMARK  status: ('A' for Active; 'I' for Inactive)
REMARK    1  A    between atoms: C1_3  and  C9_11 
REMARK    2  A    between atoms: C1_3  and  C10_12 
REMARK    3  A    between atoms: C1_3  and  C11_13 
REMARK    4  A    between atoms: C2_4  and  C3_5 
REMARK    5  A    between atoms: C2_4  and  C4_6 
REMARK    6  A    between atoms: C2_4  and  C16_18 
REMARK    7  A    between atoms: C3_5  and  C5_7 
REMARK    8  A    between atoms: C3_5  and  C8_10 
REMARK    9  A    between atoms: C3_5  and  C17_19 
REMARK   10  A    between atoms: C4_6  and  C12_14 
REMARK   11  A    between atoms: C5_7  and  C13_15 
REMARK   12  A    between atoms: C6_8  and  C10_12 
REMARK   13  A    between atoms: C6_8  and  C14_16 
REMARK   14  A    between atoms: C7_9  and  C11_13 
REMARK   15  A    between atoms: C7_9  and  C15_17 
REMARK   16  A    between atoms: C8_10  and  C11_13 
REMARK   17  A    between atoms: C8_10  and  C19_21 
REMARK   18  A    between atoms: C10_12  and  C12_14 
REMARK   19  A    between atoms: C10_12  and  C16_18 
REMARK   20  A    between atoms: C11_13  and  C13_15 
REMARK   21  A    between atoms: C11_13  and  C17_19 
REMARK   22  A    between atoms: C12_14  and  C14_16 
REMARK   23  A    between atoms: C13_15  and  C15_17 
REMARK   24  A    between atoms: C14_16  and  C16_18 
REMARK   25  A    between atoms: C15_17  and  C17_19 
REMARK   26  A    between atoms: C18_20  and  C19_21 
ROOT
HETATM    1  N1  UNL     1     -40.112  13.584  49.303  1.00  0.00     0.000 N 
HETATM    2  N2  UNL     1     -38.966  11.137  49.783  1.00  0.00    -0.006 N 
HETATM    3  C1  UNL     1     -39.627  13.125  49.730  1.00  0.00     0.051 A 
HETATM    4  C2  UNL     1     -40.161  14.340  49.535  1.00  0.00     0.004 A 
HETATM    5  C3  UNL     1     -40.482  13.226  48.701  1.00  0.00     0.023 A 
HETATM    6  C4  UNL     1     -41.084  14.898  48.599  1.00  0.00     0.000 A 
HETATM    7  C5  UNL     1     -41.262  14.280  48.137  1.00  0.00     0.002 A 
HETATM    8  C6  UNL     1     -40.595  14.925  49.221  1.00  0.00     0.000 A 
HETATM    9  C7  UNL     1     -40.994  13.536  48.182  1.00  0.00     0.003 A 
HETATM   10  C8  UNL     1     -39.539  12.361  49.543  1.00  0.00     0.173 A 
HETATM   11  C9  UNL     1     -39.054  11.901  49.970  1.00  0.00     0.219 A 
HETATM   12  C10 UNL     1     -39.679  14.475  50.190  1.00  0.00     0.003 A 
HETATM   13  C11 UNL     1     -40.267  12.430  48.660  1.00  0.00     0.026 A 
HETATM   14  C12 UNL     1     -40.574  15.685  49.542  1.00  0.00     0.000 A 
HETATM   15  C13 UNL     1     -41.327  13.071  47.586  1.00  0.00     0.003 A 
HETATM   16  C14 UNL     1     -39.647  15.228  50.523  1.00  0.00     0.000 A 
HETATM   17  C15 UNL     1     -40.589  11.951  48.071  1.00  0.00     0.003 A 
HETATM   18  C16 UNL     1     -40.097  15.838  50.197  1.00  0.00     0.000 A 
HETATM   19  C17 UNL     1     -41.123  12.274  47.530  1.00  0.00     0.003 A 
HETATM   20  C18 UNL     1     -38.481  10.678  50.210  1.00  0.00     0.247 A 
HETATM   21  C19 UNL     1     -39.362  10.831  49.169  1.00  0.00     0.242 A 
ENDROOT
TORSDOF 26
ENDMDL
