MODEL 1
REMARK VINA RESULT:     227.3      0.000      0.000
REMARK  19 active torsions:
REMARK  status: ('A' for Active; 'I' for Inactive)
REMARK    1  A    between atoms: O1_1  and  C12_14 
REMARK    2  A    between atoms: C1_3  and  C3_5 
REMARK    3  A    between atoms: C1_3  and  C4_6 
REMARK    4  A    between atoms: C1_3  and  C8_10 
REMARK    5  A    between atoms: C2_4  and  C13_15 
REMARK    6  A    between atoms: C3_5  and  C7_9 
REMARK    7  A    between atoms: C4_6  and  C7_9 
REMARK    8  A    between atoms: C4_6  and  C11_13 
REMARK    9  A    between atoms: C5_7  and  C7_9 
REMARK   10  A    between atoms: C5_7  and  C8_10 
REMARK   11  A    between atoms: C5_7  and  C9_11 
REMARK   12  A    between atoms: C6_8  and  C7_9 
REMARK   13  A    between atoms: C6_8  and  C14_16 
REMARK   14  A    between atoms: C7_9  and  C8_10 
REMARK   15  A    between atoms: C8_10  and  C10_12 
REMARK   16  A    between atoms: C9_11  and  C11_13 
REMARK   17  A    between atoms: C10_12  and  C12_14 
REMARK   18  A    between atoms: C11_13  and  C12_14 
REMARK   19  A    between atoms: C12_14  and  C15_17 
ROOT
HETATM    1  O1  UNL     1     -36.495  10.660  50.509  1.00  0.00     0.000 OA
HETATM    2  O2  UNL     1     -40.062  15.837  50.498  1.00  0.00     0.000 OA
HETATM    3  C1  UNL     1     -38.902  13.650  50.507  1.00  0.00     0.000 A 
HETATM    4  C2  UNL     1     -39.288  14.379  50.504  1.00  0.00     0.000 A 
HETATM    5  C3  UNL     1     -37.691  12.892  50.499  1.00  0.00     0.000 A 
HETATM    6  C4  UNL     1     -38.129  12.193  50.513  1.00  0.00     0.000 A 
HETATM    7  C5  UNL     1     -38.077  13.621  50.496  1.00  0.00     0.000 A 
HETATM    8  C6  UNL     1     -40.112  14.408  50.515  1.00  0.00     0.000 A 
HETATM    9  C7  UNL     1     -39.340  12.951  50.521  1.00  0.00     0.000 A 
HETATM   10  C8  UNL     1     -38.953  12.223  50.524  1.00  0.00     0.000 A 
HETATM   11  C9  UNL     1     -36.833  12.874  50.488  1.00  0.00     0.000 A 
HETATM   12  C10 UNL     1     -37.738  11.428  50.517  1.00  0.00     0.000 A 
HETATM   13  C11 UNL     1     -36.879  11.390  50.506  1.00  0.00     0.000 A 
HETATM   14  C12 UNL     1     -36.424  12.118  50.491  1.00  0.00     0.000 A 
HETATM   15  C13 UNL     1     -40.499  15.138  50.512  1.00  0.00     0.000 A 
HETATM   16  C14 UNL     1     -41.324  15.167  50.523  1.00  0.00     0.000 A 
HETATM   17  C15 UNL     1     -35.671  10.627  50.498  1.00  0.00     0.000 A 
ENDROOT
TORSDOF 19
ENDMDL
