MODEL 1
REMARK VINA RESULT:     178.1      0.000      0.000
REMARK  20 active torsions:
REMARK  status: ('A' for Active; 'I' for Inactive)
REMARK    1  A    between atoms: N1_4  and  C1_5 
REMARK    2  A    between atoms: N1_4  and  C9_13 
REMARK    3  A    between atoms: C1_5  and  C6_10 
REMARK    4  A    between atoms: C2_6  and  C8_12 
REMARK    5  A    between atoms: C4_8  and  C5_9 
REMARK    6  A    between atoms: C4_8  and  C7_11 
REMARK    7  A    between atoms: C4_8  and  C8_12 
REMARK    8  A    between atoms: C5_9  and  C6_10 
REMARK    9  A    between atoms: C5_9  and  C10_14 
REMARK   10  A    between atoms: C5_9  and  C11_15 
REMARK   11  A    between atoms: C6_10  and  C7_11 
REMARK   12  A    between atoms: C7_11  and  C9_13 
REMARK   13  A    between atoms: C7_11  and  C11_15 
REMARK   14  A    between atoms: C10_14  and  C15_19 
REMARK   15  A    between atoms: C11_15  and  C12_16 
REMARK   16  A    between atoms: C11_15  and  C14_18 
REMARK   17  A    between atoms: C12_16  and  C13_17 
REMARK   18  A    between atoms: C12_16  and  C15_19 
REMARK   19  A    between atoms: C13_17  and  C14_18 
REMARK   20  A    between atoms: C14_18  and  C15_19 
ROOT
HETATM    1  O1  UNL     1     -41.280  15.631  50.522  1.00  0.00    -0.323 OA
HETATM    2  O2  UNL     1     -41.067  14.218  50.521  1.00  0.00    -0.323 OA
HETATM    3  O3  UNL     1     -36.942  15.202  50.526  1.00  0.00     0.000 OA
HETATM    4  N1  UNL     1     -38.637  14.896  50.524  1.00  0.00     0.000 N 
HETATM    5  C1  UNL     1     -39.950  15.109  50.523  1.00  0.00     0.138 A 
HETATM    6  C2  UNL     1     -39.573  15.838  50.524  1.00  0.00     0.099 A 
HETATM    7  C3  UNL     1     -38.763  15.705  50.524  1.00  0.00     0.057 A 
HETATM    8  C4  UNL     1     -39.374  14.525  50.523  1.00  0.00     0.081 A 
HETATM    9  C5  UNL     1     -38.057  14.309  50.524  1.00  0.00     0.016 A 
HETATM   10  C6  UNL     1     -39.250  13.709  50.522  1.00  0.00     0.049 A 
HETATM   11  C7  UNL     1     -38.436  13.576  50.523  1.00  0.00     0.013 A 
HETATM   12  C8  UNL     1     -40.766  14.986  50.522  1.00  0.00     0.191 A 
HETATM   13  C9  UNL     1     -37.242  14.433  50.524  1.00  0.00     0.001 A 
HETATM   14  C10 UNL     1     -36.726  13.790  50.524  1.00  0.00     0.001 A 
HETATM   15  C11 UNL     1     -37.025  13.021  50.523  1.00  0.00     0.001 A 
HETATM   16  C12 UNL     1     -35.910  13.914  50.525  1.00  0.00     0.000 A 
HETATM   17  C13 UNL     1     -36.510  12.377  50.523  1.00  0.00     0.000 A 
HETATM   18  C14 UNL     1     -35.394  13.270  50.525  1.00  0.00     0.000 A 
HETATM   19  C15 UNL     1     -35.694  12.502  50.524  1.00  0.00     0.000 A 
ENDROOT
TORSDOF 20
ENDMDL
