MODEL 1
REMARK VINA RESULT:     297.2      0.000      0.000
REMARK  26 active torsions:
REMARK  status: ('A' for Active; 'I' for Inactive)
REMARK    1  A    between atoms: F1_1  and  C9_17 
REMARK    2  A    between atoms: N1_5  and  C4_12 
REMARK    3  A    between atoms: N1_5  and  C8_16 
REMARK    4  A    between atoms: N2_6  and  C2_10 
REMARK    5  A    between atoms: N3_7  and  C13_21 
REMARK    6  A    between atoms: N4_8  and  C7_15 
REMARK    7  A    between atoms: N4_8  and  C8_16 
REMARK    8  A    between atoms: C1_9  and  C4_12 
REMARK    9  A    between atoms: C2_10  and  C4_12 
REMARK   10  A    between atoms: C2_10  and  C3_11 
REMARK   11  A    between atoms: C2_10  and  C5_13 
REMARK   12  A    between atoms: C5_13  and  C6_14 
REMARK   13  A    between atoms: C5_13  and  C9_17 
REMARK   14  A    between atoms: C6_14  and  C11_19 
REMARK   15  A    between atoms: C6_14  and  C13_21 
REMARK   16  A    between atoms: C7_15  and  C8_16 
REMARK   17  A    between atoms: C7_15  and  C12_20 
REMARK   18  A    between atoms: C7_15  and  C13_21 
REMARK   19  A    between atoms: C8_16  and  C9_17 
REMARK   20  A    between atoms: C9_17  and  C11_19 
REMARK   21  A    between atoms: C10_18  and  C12_20 
REMARK   22  A    between atoms: C11_19  and  C12_20 
REMARK   23  A    between atoms: C11_19  and  C15_23 
REMARK   24  A    between atoms: C12_20  and  C13_21 
REMARK   25  A    between atoms: C12_20  and  C14_22 
REMARK   26  A    between atoms: C12_20  and  C15_23 
ROOT
HETATM    1  F1  UNL     1     -38.556  11.185  50.234  1.00  0.00    -0.525 F 
HETATM    2  O1  UNL     1     -40.647  13.365  50.138  1.00  0.00     0.000 OA
HETATM    3  O2  UNL     1     -40.579  15.838  50.197  1.00  0.00    -0.323 OA
HETATM    4  O3  UNL     1     -41.325  14.622  50.118  1.00  0.00    -0.323 OA
HETATM    5  N1  UNL     1     -37.074  11.987  50.354  1.00  0.00     0.000 N 
HETATM    6  N2  UNL     1     -35.668  11.127  50.433  1.00  0.00     0.022 N 
HETATM    7  N3  UNL     1     -38.475  14.541  50.314  1.00  0.00     0.000 N 
HETATM    8  N4  UNL     1     -37.760  13.277  50.335  1.00  0.00     0.000 N 
HETATM    9  C1  UNL     1     -36.352  12.381  50.413  1.00  0.00     0.263 A 
HETATM   10  C2  UNL     1     -37.093  11.163  50.335  1.00  0.00     0.233 A 
HETATM   11  C3  UNL     1     -35.648  11.951  50.452  1.00  0.00     0.272 A 
HETATM   12  C4  UNL     1     -36.390  10.732  50.374  1.00  0.00     0.272 A 
HETATM   13  C5  UNL     1     -37.777  12.417  50.315  1.00  0.00     0.135 A 
HETATM   14  C6  UNL     1     -38.497  13.716  50.294  1.00  0.00     0.090 A 
HETATM   15  C7  UNL     1     -39.221  13.324  50.235  1.00  0.00     0.098 A 
HETATM   16  C8  UNL     1     -38.530  12.009  50.254  1.00  0.00     0.127 A 
HETATM   17  C9  UNL     1     -39.258  12.466  50.214  1.00  0.00     0.088 A 
HETATM   18  C10 UNL     1     -37.751  14.932  50.372  1.00  0.00     0.018 A 
HETATM   19  C11 UNL     1     -39.923  13.757  50.196  1.00  0.00     0.113 A 
HETATM   20  C12 UNL     1     -39.176  14.973  50.275  1.00  0.00     0.090 A 
HETATM   21  C13 UNL     1     -39.900  14.581  50.216  1.00  0.00     0.148 A 
HETATM   22  C14 UNL     1     -37.729  15.756  50.392  1.00  0.00     0.010 A 
HETATM   23  C15 UNL     1     -40.601  15.013  50.177  1.00  0.00     0.194 A 
ENDROOT
TORSDOF 26
ENDMDL
