MODEL 1
REMARK VINA RESULT:     317.9      0.000      0.000
REMARK  19 active torsions:
REMARK  status: ('A' for Active; 'I' for Inactive)
REMARK    1  A    between atoms: O2_2  and  C9_12 
REMARK    2  A    between atoms: N1_3  and  C8_11 
REMARK    3  A    between atoms: C1_4  and  C6_9 
REMARK    4  A    between atoms: C2_5  and  C3_6 
REMARK    5  A    between atoms: C2_5  and  C5_8 
REMARK    6  A    between atoms: C2_5  and  C7_10 
REMARK    7  A    between atoms: C3_6  and  C4_7 
REMARK    8  A    between atoms: C3_6  and  C6_9 
REMARK    9  A    between atoms: C4_7  and  C5_8 
REMARK   10  A    between atoms: C5_8  and  C6_9 
REMARK   11  A    between atoms: C7_10  and  C9_12 
REMARK   12  A    between atoms: C9_12  and  C10_13 
REMARK   13  A    between atoms: C11_14  and  C16_19 
REMARK   14  A    between atoms: C12_15  and  C13_16 
REMARK   15  A    between atoms: C12_15  and  C15_18 
REMARK   16  A    between atoms: C13_16  and  C14_17 
REMARK   17  A    between atoms: C13_16  and  C16_19 
REMARK   18  A    between atoms: C14_17  and  C15_18 
REMARK   19  A    between atoms: C15_18  and  C16_19 
ROOT
HETATM    1  O1  UNL     1     -39.081  13.241  47.989  1.00  0.00     0.000 OA
HETATM    2  O2  UNL     1     -40.403  12.866  47.597  1.00  0.00     0.000 OA
HETATM    3  N1  UNL     1     -37.753  11.526  47.756  1.00  0.00     0.000 N 
HETATM    4  C1  UNL     1     -36.959  11.333  47.867  1.00  0.00     0.000 A 
HETATM    5  C2  UNL     1     -36.432  11.901  48.149  1.00  0.00     0.000 A 
HETATM    6  C3  UNL     1     -36.691  10.572  47.695  1.00  0.00     0.000 A 
HETATM    7  C4  UNL     1     -35.638  11.708  48.259  1.00  0.00     0.000 A 
HETATM    8  C5  UNL     1     -35.897  10.378  47.805  1.00  0.00     0.000 A 
HETATM    9  C6  UNL     1     -35.371  10.947  48.087  1.00  0.00     0.000 A 
HETATM   10  C7  UNL     1     -38.020  12.287  47.928  1.00  0.00     0.000 A 
HETATM   11  C8  UNL     1     -38.815  12.481  47.818  1.00  0.00     0.000 A 
HETATM   12  C9  UNL     1     -39.342  11.912  47.535  1.00  0.00     0.000 A 
HETATM   13  C10 UNL     1     -39.877  13.435  47.879  1.00  0.00     0.000 A 
HETATM   14  C11 UNL     1     -40.144  14.196  48.051  1.00  0.00     0.000 A 
HETATM   15  C12 UNL     1     -39.616  14.764  48.333  1.00  0.00     0.000 A 
HETATM   16  C13 UNL     1     -40.938  14.389  47.941  1.00  0.00     0.000 A 
HETATM   17  C14 UNL     1     -39.883  15.525  48.505  1.00  0.00     0.000 A 
HETATM   18  C15 UNL     1     -41.205  15.150  48.112  1.00  0.00     0.000 A 
HETATM   19  C16 UNL     1     -40.678  15.719  48.394  1.00  0.00     0.000 A 
ENDROOT
TORSDOF 19
ENDMDL
