MODEL 1
REMARK VINA RESULT:     260.0      0.000      0.000
REMARK  25 active torsions:
REMARK  status: ('A' for Active; 'I' for Inactive)
REMARK    1  A    between atoms: S1_1  and  O1_2 
REMARK    2  A    between atoms: S1_1  and  C14_17 
REMARK    3  A    between atoms: O1_2  and  C4_7 
REMARK    4  A    between atoms: C1_4  and  C3_6 
REMARK    5  A    between atoms: C1_4  and  C8_11 
REMARK    6  A    between atoms: C1_4  and  C9_12 
REMARK    7  A    between atoms: C2_5  and  C4_7 
REMARK    8  A    between atoms: C2_5  and  C5_8 
REMARK    9  A    between atoms: C2_5  and  C9_12 
REMARK   10  A    between atoms: C3_6  and  C4_7 
REMARK   11  A    between atoms: C3_6  and  C8_11 
REMARK   12  A    between atoms: C5_8  and  C11_14 
REMARK   13  A    between atoms: C6_9  and  C9_12 
REMARK   14  A    between atoms: C6_9  and  C12_15 
REMARK   15  A    between atoms: C7_10  and  C9_12 
REMARK   16  A    between atoms: C7_10  and  C10_13 
REMARK   17  A    between atoms: C7_10  and  C12_15 
REMARK   18  A    between atoms: C8_11  and  C15_18 
REMARK   19  A    between atoms: C9_12  and  C11_14 
REMARK   20  A    between atoms: C10_13  and  C18_21 
REMARK   21  A    between atoms: C11_14  and  C12_15 
REMARK   22  A    between atoms: C11_14  and  C13_16 
REMARK   23  A    between atoms: C13_16  and  C17_20 
REMARK   24  A    between atoms: C14_17  and  C15_18 
REMARK   25  A    between atoms: C17_20  and  C18_21 
ROOT
HETATM    1  S1  UNL     1     -38.615  11.506  49.929  1.00  0.00    -0.216 SA
HETATM    2  O1  UNL     1     -39.670  12.809  49.527  1.00  0.00     0.000 OA
HETATM    3  N1  UNL     1     -41.122  11.011  47.847  1.00  0.00    -0.254 NA
HETATM    4  C1  UNL     1     -39.774  12.055  49.210  1.00  0.00     0.045 A 
HETATM    5  C2  UNL     1     -40.396  11.910  48.687  1.00  0.00     0.059 A 
HETATM    6  C3  UNL     1     -40.500  11.155  48.370  1.00  0.00     0.081 A 
HETATM    7  C4  UNL     1     -39.258  11.445  49.416  1.00  0.00     0.054 A 
HETATM    8  C5  UNL     1     -40.186  13.418  49.321  1.00  0.00     0.017 A 
HETATM    9  C6  UNL     1     -40.081  14.173  49.639  1.00  0.00     0.004 A 
HETATM   10  C7  UNL     1     -40.597  14.782  49.433  1.00  0.00     0.004 A 
HETATM   11  C8  UNL     1     -39.293  10.667  49.145  1.00  0.00     0.052 A 
HETATM   12  C9  UNL     1     -40.807  13.274  48.799  1.00  0.00     0.019 A 
HETATM   13  C10 UNL     1     -39.430  14.311  50.182  1.00  0.00     0.002 A 
HETATM   14  C11 UNL     1     -41.219  14.637  48.910  1.00  0.00     0.004 A 
HETATM   15  C12 UNL     1     -41.324  13.883  48.593  1.00  0.00     0.004 A 
HETATM   16  C13 UNL     1     -40.499  15.572  49.757  1.00  0.00     0.000 A 
HETATM   17  C14 UNL     1     -38.673  10.248  49.490  1.00  0.00     0.045 A 
HETATM   18  C15 UNL     1     -38.254  10.767  49.975  1.00  0.00     0.045 A 
HETATM   19  C16 UNL     1     -41.227  10.256  47.530  1.00  0.00     0.035 A 
HETATM   20  C17 UNL     1     -39.315  15.095  50.516  1.00  0.00     0.000 A 
HETATM   21  C18 UNL     1     -39.853  15.729  50.302  1.00  0.00     0.000 A 
ENDROOT
TORSDOF 25
ENDMDL
MODEL 2
REMARK VINA RESULT:     261.1      1.840      2.846
REMARK  25 active torsions:
REMARK  status: ('A' for Active; 'I' for Inactive)
REMARK    1  A    between atoms: S1_1  and  O1_2 
REMARK    2  A    between atoms: S1_1  and  C14_17 
REMARK    3  A    between atoms: O1_2  and  C4_7 
REMARK    4  A    between atoms: C1_4  and  C3_6 
REMARK    5  A    between atoms: C1_4  and  C8_11 
REMARK    6  A    between atoms: C1_4  and  C9_12 
REMARK    7  A    between atoms: C2_5  and  C4_7 
REMARK    8  A    between atoms: C2_5  and  C5_8 
REMARK    9  A    between atoms: C2_5  and  C9_12 
REMARK   10  A    between atoms: C3_6  and  C4_7 
REMARK   11  A    between atoms: C3_6  and  C8_11 
REMARK   12  A    between atoms: C5_8  and  C11_14 
REMARK   13  A    between atoms: C6_9  and  C9_12 
REMARK   14  A    between atoms: C6_9  and  C12_15 
REMARK   15  A    between atoms: C7_10  and  C9_12 
REMARK   16  A    between atoms: C7_10  and  C10_13 
REMARK   17  A    between atoms: C7_10  and  C12_15 
REMARK   18  A    between atoms: C8_11  and  C15_18 
REMARK   19  A    between atoms: C9_12  and  C11_14 
REMARK   20  A    between atoms: C10_13  and  C18_21 
REMARK   21  A    between atoms: C11_14  and  C12_15 
REMARK   22  A    between atoms: C11_14  and  C13_16 
REMARK   23  A    between atoms: C13_16  and  C17_20 
REMARK   24  A    between atoms: C14_17  and  C15_18 
REMARK   25  A    between atoms: C17_20  and  C18_21 
ROOT
HETATM    1  S1  UNL     1     -39.047  11.581  49.832  1.00  0.00    -0.216 SA
HETATM    2  O1  UNL     1     -39.108  13.282  50.102  1.00  0.00     0.000 OA
HETATM    3  N1  UNL     1     -36.275  13.244  50.479  1.00  0.00    -0.254 NA
HETATM    4  C1  UNL     1     -38.397  12.865  50.130  1.00  0.00     0.045 A 
HETATM    5  C2  UNL     1     -37.691  13.263  50.290  1.00  0.00     0.059 A 
HETATM    6  C3  UNL     1     -36.980  12.846  50.318  1.00  0.00     0.081 A 
HETATM    7  C4  UNL     1     -38.390  12.050  49.998  1.00  0.00     0.054 A 
HETATM    8  C5  UNL     1     -39.114  14.096  50.234  1.00  0.00     0.017 A 
HETATM    9  C6  UNL     1     -39.826  14.512  50.206  1.00  0.00     0.004 A 
HETATM   10  C7  UNL     1     -39.833  15.326  50.339  1.00  0.00     0.004 A 
HETATM   11  C8  UNL     1     -37.725  11.563  50.008  1.00  0.00     0.052 A 
HETATM   12  C9  UNL     1     -38.410  14.493  50.395  1.00  0.00     0.019 A 
HETATM   13  C10 UNL     1     -40.553  14.087  50.038  1.00  0.00     0.002 A 
HETATM   14  C11 UNL     1     -39.128  15.725  50.499  1.00  0.00     0.004 A 
HETATM   15  C12 UNL     1     -38.417  15.308  50.527  1.00  0.00     0.004 A 
HETATM   16  C13 UNL     1     -40.567  15.772  50.312  1.00  0.00     0.000 A 
HETATM   17  C14 UNL     1     -37.970  10.792  49.848  1.00  0.00     0.045 A 
HETATM   18  C15 UNL     1     -38.788  10.803  49.740  1.00  0.00     0.045 A 
HETATM   19  C16 UNL     1     -35.564  12.827  50.506  1.00  0.00     0.035 A 
HETATM   20  C17 UNL     1     -41.298  14.515  50.008  1.00  0.00     0.000 A 
HETATM   21  C18 UNL     1     -41.305  15.363  50.146  1.00  0.00     0.000 A 
ENDROOT
TORSDOF 25
ENDMDL
