MODEL 1
REMARK VINA RESULT:     221.6      0.000      0.000
REMARK WARNING: 32 MAX_TORS EXCEEDED!!!
REMARK  33 active torsions:
REMARK  status: ('A' for Active; 'I' for Inactive)
REMARK    1  A    between atoms: CL1_1  and  C16_20 
REMARK    2  A    between atoms: S1_2  and  N1_3 
REMARK    3  A    between atoms: S1_2  and  C5_9 
REMARK    4  A    between atoms: N1_3  and  C6_10 
REMARK    5  A    between atoms: N1_3  and  C7_11 
REMARK    6  A    between atoms: C1_5  and  C3_7 
REMARK    7  A    between atoms: C1_5  and  C8_12 
REMARK    8  A    between atoms: C1_5  and  C9_13 
REMARK    9  A    between atoms: C2_6  and  C5_9 
REMARK   10  A    between atoms: C2_6  and  C9_13 
REMARK   11  A    between atoms: C2_6  and  C12_16 
REMARK   12  A    between atoms: C4_8  and  C5_9 
REMARK   13  A    between atoms: C4_8  and  C7_11 
REMARK   14  A    between atoms: C4_8  and  C10_14 
REMARK   15  A    between atoms: C4_8  and  C14_18 
REMARK   16  A    between atoms: C4_8  and  C16_20 
REMARK   17  A    between atoms: C5_9  and  C7_11 
REMARK   18  A    between atoms: C5_9  and  C6_10 
REMARK   19  A    between atoms: C5_9  and  C11_15 
REMARK   20  A    between atoms: C5_9  and  C17_21 
REMARK   21  A    between atoms: C6_10  and  C8_12 
REMARK   22  A    between atoms: C6_10  and  C14_18 
REMARK   23  A    between atoms: C7_11  and  C9_13 
REMARK   24  A    between atoms: C7_11  and  C15_19 
REMARK   25  A    between atoms: C8_12  and  C10_14 
REMARK   26  A    between atoms: C8_12  and  C16_20 
REMARK   27  A    between atoms: C9_13  and  C11_15 
REMARK   28  A    between atoms: C9_13  and  C17_21 
REMARK   29  A    between atoms: C10_14  and  C14_18 
REMARK   30  A    between atoms: C11_15  and  C15_19 
REMARK   31  A    between atoms: C12_16  and  C13_17 
REMARK   32  A    between atoms: C14_18  and  C16_20 
REMARK   33  A    between atoms: C15_19  and  C17_21 
ROOT
HETATM    1 CL1  UNL     1     -41.264  14.182  49.823  1.00  0.00    -0.245 Cl
HETATM    2  S1  UNL     1     -38.505  15.801  50.218  1.00  0.00    -0.227 SA
HETATM    3  N1  UNL     1     -38.497  14.217  50.220  1.00  0.00     0.000 N 
HETATM    4  N2  UNL     1     -37.126  11.848  50.419  1.00  0.00    -0.006 N 
HETATM    5  C1  UNL     1     -38.492  13.425  50.222  1.00  0.00     0.075 A 
HETATM    6  C2  UNL     1     -37.811  13.032  50.320  1.00  0.00     0.181 A 
HETATM    7  C3  UNL     1     -37.807  12.240  50.321  1.00  0.00     0.222 A 
HETATM    8  C4  UNL     1     -39.178  14.609  50.122  1.00  0.00     0.045 A 
HETATM    9  C5  UNL     1     -37.820  14.616  50.317  1.00  0.00     0.041 A 
HETATM   10  C6  UNL     1     -39.182  15.401  50.121  1.00  0.00     0.046 A 
HETATM   11  C7  UNL     1     -37.824  15.408  50.316  1.00  0.00     0.026 A 
HETATM   12  C8  UNL     1     -39.876  14.182  50.022  1.00  0.00     0.060 A 
HETATM   13  C9  UNL     1     -37.117  14.197  50.418  1.00  0.00     0.045 A 
HETATM   14  C10 UNL     1     -39.885  15.821  50.020  1.00  0.00     0.050 A 
HETATM   15  C11 UNL     1     -37.125  15.836  50.416  1.00  0.00     0.022 A 
HETATM   16  C12 UNL     1     -36.449  12.248  50.516  1.00  0.00     0.243 A 
HETATM   17  C13 UNL     1     -37.122  11.056  50.420  1.00  0.00     0.247 A 
HETATM   18  C14 UNL     1     -40.589  14.585  49.920  1.00  0.00     0.064 A 
HETATM   19  C15 UNL     1     -36.408  14.608  50.520  1.00  0.00     0.023 A 
HETATM   20  C16 UNL     1     -40.594  15.410  49.918  1.00  0.00     0.064 A 
HETATM   21  C17 UNL     1     -36.412  15.433  50.518  1.00  0.00     0.023 A 
ENDROOT
TORSDOF 33
ENDMDL
