MODEL 1
REMARK VINA RESULT:      34.5      0.000      0.000
REMARK  25 active torsions:
REMARK  status: ('A' for Active; 'I' for Inactive)
REMARK    1  A    between atoms: C1_2  and  C9_10 
REMARK    2  A    between atoms: C1_2  and  C12_13 
REMARK    3  A    between atoms: C2_3  and  C4_5 
REMARK    4  A    between atoms: C2_3  and  C7_8 
REMARK    5  A    between atoms: C2_3  and  C10_11 
REMARK    6  A    between atoms: C3_4  and  C8_9 
REMARK    7  A    between atoms: C3_4  and  C4_5 
REMARK    8  A    between atoms: C3_4  and  C5_6 
REMARK    9  A    between atoms: C3_4  and  C9_10 
REMARK   10  A    between atoms: C4_5  and  C9_10 
REMARK   11  A    between atoms: C4_5  and  C10_11 
REMARK   12  A    between atoms: C4_5  and  C5_6 
REMARK   13  A    between atoms: C4_5  and  C6_7 
REMARK   14  A    between atoms: C5_6  and  C11_12 
REMARK   15  A    between atoms: C5_6  and  C12_13 
REMARK   16  A    between atoms: C6_7  and  C7_8 
REMARK   17  A    between atoms: C6_7  and  C8_9 
REMARK   18  A    between atoms: C6_7  and  C9_10 
REMARK   19  A    between atoms: C6_7  and  C11_12 
REMARK   20  A    between atoms: C7_8  and  C9_10 
REMARK   21  A    between atoms: C7_8  and  C10_11 
REMARK   22  A    between atoms: C7_8  and  C11_12 
REMARK   23  A    between atoms: C8_9  and  C9_10 
REMARK   24  A    between atoms: C8_9  and  C10_11 
REMARK   25  A    between atoms: C9_10  and  C10_11 
ROOT
HETATM    1  N1  UNL     1     -38.106  15.836  50.509  1.00  0.00    -0.281 NA
HETATM    2  C1  UNL     1     -39.362  15.667  49.799  1.00  0.00     0.031 A 
HETATM    3  C2  UNL     1     -40.576  15.503  49.113  1.00  0.00     0.014 A 
HETATM    4  C3  UNL     1     -40.936  15.454  49.239  1.00  0.00     0.008 A 
HETATM    5  C4  UNL     1     -40.558  15.504  50.516  1.00  0.00     0.015 A 
HETATM    6  C5  UNL     1     -39.773  15.612  49.103  1.00  0.00     0.026 A 
HETATM    7  C6  UNL     1     -40.068  15.572  49.228  1.00  0.00     0.019 A 
HETATM    8  C7  UNL     1     -39.755  15.613  50.506  1.00  0.00     0.022 A 
HETATM    9  C8  UNL     1     -40.987  15.448  48.416  1.00  0.00     0.008 A 
HETATM   10  C9  UNL     1     -40.819  15.469  49.818  1.00  0.00     0.014 A 
HETATM   11  C10 UNL     1     -41.323  15.401  50.004  1.00  0.00     0.008 A 
HETATM   12  C11 UNL     1     -38.531  15.780  49.788  1.00  0.00     0.048 A 
HETATM   13  C12 UNL     1     -38.125  15.836  49.056  1.00  0.00     0.066 A 
ENDROOT
TORSDOF 25
ENDMDL
