MODEL 1
REMARK VINA RESULT:     185.8      0.000      0.000
REMARK  28 active torsions:
REMARK  status: ('A' for Active; 'I' for Inactive)
REMARK    1  A    between atoms: O2_2  and  C1_7 
REMARK    2  A    between atoms: O2_2  and  C3_9 
REMARK    3  A    between atoms: O3_3  and  C6_12 
REMARK    4  A    between atoms: N1_4  and  C5_11 
REMARK    5  A    between atoms: N1_4  and  C7_13 
REMARK    6  A    between atoms: N1_4  and  C8_14 
REMARK    7  A    between atoms: N2_5  and  C1_7 
REMARK    8  A    between atoms: N2_5  and  C6_12 
REMARK    9  A    between atoms: C1_7  and  C8_14 
REMARK   10  A    between atoms: C1_7  and  C5_11 
REMARK   11  A    between atoms: C1_7  and  C9_15 
REMARK   12  A    between atoms: C2_8  and  C8_14 
REMARK   13  A    between atoms: C2_8  and  C9_15 
REMARK   14  A    between atoms: C3_9  and  C5_11 
REMARK   15  A    between atoms: C3_9  and  C10_16 
REMARK   16  A    between atoms: C4_10  and  C5_11 
REMARK   17  A    between atoms: C4_10  and  C12_18 
REMARK   18  A    between atoms: C4_10  and  C13_19 
REMARK   19  A    between atoms: C5_11  and  C11_17 
REMARK   20  A    between atoms: C6_12  and  C9_15 
REMARK   21  A    between atoms: C6_12  and  C8_14 
REMARK   22  A    between atoms: C7_13  and  C10_16 
REMARK   23  A    between atoms: C7_13  and  C12_18 
REMARK   24  A    between atoms: C8_14  and  C9_15 
REMARK   25  A    between atoms: C10_16  and  C11_17 
REMARK   26  A    between atoms: C10_16  and  C13_19 
REMARK   27  A    between atoms: C11_17  and  C12_18 
REMARK   28  A    between atoms: C12_18  and  C13_19 
ROOT
HETATM    1  O1  UNL     1     -41.325  13.535  47.529  1.00  0.00    -0.366 OA
HETATM    2  N1  UNL     1     -40.552  13.207  48.729  1.00  0.00     0.000 N 
HETATM    3  N3  UNL     1     -40.067  14.989  50.523  1.00  0.00    -0.274 NA
HETATM    4  C1  UNL     1     -40.406  12.410  48.572  1.00  0.00     0.025 A 
HETATM    5  C2  UNL     1     -40.694  12.066  47.880  1.00  0.00     0.002 A 
HETATM    6  C3  UNL     1     -40.301  13.621  49.391  1.00  0.00     0.067 A 
HETATM    7  C4  UNL     1     -40.567  14.394  49.325  1.00  0.00     0.075 A 
HETATM    8  C5  UNL     1     -40.974  13.722  48.251  1.00  0.00     0.093 A 
HETATM    9  C6  UNL     1     -40.547  11.269  47.723  1.00  0.00     0.002 A 
HETATM   10  C7  UNL     1     -40.985  14.457  48.616  1.00  0.00     0.087 A 
HETATM   11  C10 UNL     1     -40.485  15.052  49.814  1.00  0.00     0.070 A 
HETATM   12  C11 UNL     1     -41.320  15.178  48.397  1.00  0.00     0.076 A 
HETATM   13  C12 UNL     1     -40.821  15.774  49.597  1.00  0.00     0.075 A 
HETATM   14  C13 UNL     1     -41.238  15.836  48.888  1.00  0.00     0.065 A 
ENDROOT
BRANCH   6  15
HETATM   15  O2  UNL     1     -39.682  12.301  49.800  1.00  0.00     0.000 OA
HETATM   16  C8  UNL     1     -38.959  12.681  49.913  1.00  0.00     0.002 A 
HETATM   17  N2  UNL     1     -38.301  12.250  50.163  1.00  0.00     0.000 N 
HETATM   18  C9  UNL     1     -37.578  12.632  50.277  1.00  0.00     0.002 A 
HETATM   19  O3  UNL     1     -36.920  12.201  50.527  1.00  0.00     0.000 OA
ENDBRANCH   6  15
TORSDOF 28
ENDMDL
