MODEL 1
REMARK VINA RESULT:      60.7      0.000      0.000
REMARK  19 active torsions:
REMARK  status: ('A' for Active; 'I' for Inactive)
REMARK    1  A    between atoms: I1_1  and  C2_6 
REMARK    2  A    between atoms: I1_1  and  C4_8 
REMARK    3  A    between atoms: I1_1  and  C7_11 
REMARK    4  A    between atoms: CL1_2  and  C5_9 
REMARK    5  A    between atoms: N1_4  and  C3_7 
REMARK    6  A    between atoms: N1_4  and  C8_12 
REMARK    7  A    between atoms: C1_5  and  C3_7 
REMARK    8  A    between atoms: C1_5  and  C6_10 
REMARK    9  A    between atoms: C1_5  and  C7_11 
REMARK   10  A    between atoms: C2_6  and  C4_8 
REMARK   11  A    between atoms: C2_6  and  C6_10 
REMARK   12  A    between atoms: C2_6  and  C7_11 
REMARK   13  A    between atoms: C3_7  and  C4_8 
REMARK   14  A    between atoms: C3_7  and  C7_11 
REMARK   15  A    between atoms: C4_8  and  C5_9 
REMARK   16  A    between atoms: C4_8  and  C6_10 
REMARK   17  A    between atoms: C5_9  and  C9_13 
REMARK   18  A    between atoms: C6_10  and  C7_11 
REMARK   19  A    between atoms: C8_12  and  C9_13 
ROOT
HETATM    1  I1  UNL     1     -41.299  14.067  47.919  1.00  0.00    -0.189 I 
HETATM    2 CL1  UNL     1     -41.327  15.355  50.471  1.00  0.00    -0.273 Cl
HETATM    3  O1  UNL     1     -39.683  14.372  47.783  1.00  0.00     0.000 OA
HETATM    4  N1  UNL     1     -38.856  15.167  48.975  1.00  0.00     0.000 N 
HETATM    5  C1  UNL     1     -40.108  15.261  49.730  1.00  0.00     0.058 A 
HETATM    6  C2  UNL     1     -39.697  15.015  49.058  1.00  0.00     0.058 A 
HETATM    7  C3  UNL     1     -40.094  14.617  48.455  1.00  0.00     0.063 A 
HETATM    8  C4  UNL     1     -40.916  15.109  49.799  1.00  0.00     0.058 A 
HETATM    9  C5  UNL     1     -39.706  15.676  50.366  1.00  0.00     0.050 A 
HETATM   10  C6  UNL     1     -40.902  14.465  48.522  1.00  0.00     0.063 A 
HETATM   11  C7  UNL     1     -41.313  14.711  49.194  1.00  0.00     0.061 A 
HETATM   12  C8  UNL     1     -38.864  15.837  50.301  1.00  0.00     0.027 A 
HETATM   13  C9  UNL     1     -38.436  15.582  49.601  1.00  0.00     0.025 A 
ENDROOT
TORSDOF 19
ENDMDL
MODEL 2
REMARK VINA RESULT:      62.4      1.819      2.011
REMARK  19 active torsions:
REMARK  status: ('A' for Active; 'I' for Inactive)
REMARK    1  A    between atoms: I1_1  and  C2_6 
REMARK    2  A    between atoms: I1_1  and  C4_8 
REMARK    3  A    between atoms: I1_1  and  C7_11 
REMARK    4  A    between atoms: CL1_2  and  C5_9 
REMARK    5  A    between atoms: N1_4  and  C3_7 
REMARK    6  A    between atoms: N1_4  and  C8_12 
REMARK    7  A    between atoms: C1_5  and  C3_7 
REMARK    8  A    between atoms: C1_5  and  C6_10 
REMARK    9  A    between atoms: C1_5  and  C7_11 
REMARK   10  A    between atoms: C2_6  and  C4_8 
REMARK   11  A    between atoms: C2_6  and  C6_10 
REMARK   12  A    between atoms: C2_6  and  C7_11 
REMARK   13  A    between atoms: C3_7  and  C4_8 
REMARK   14  A    between atoms: C3_7  and  C7_11 
REMARK   15  A    between atoms: C4_8  and  C5_9 
REMARK   16  A    between atoms: C4_8  and  C6_10 
REMARK   17  A    between atoms: C5_9  and  C9_13 
REMARK   18  A    between atoms: C6_10  and  C7_11 
REMARK   19  A    between atoms: C8_12  and  C9_13 
ROOT
HETATM    1  I1  UNL     1     -41.258  12.922  47.580  1.00  0.00    -0.189 I 
HETATM    2 CL1  UNL     1     -41.321  15.780  47.580  1.00  0.00    -0.273 Cl
HETATM    3  O1  UNL     1     -41.088  12.927  49.222  1.00  0.00     0.000 OA
HETATM    4  N1  UNL     1     -41.030  14.344  50.075  1.00  0.00     0.000 N 
HETATM    5  C1  UNL     1     -41.177  15.068  48.811  1.00  0.00     0.058 A 
HETATM    6  C2  UNL     1     -41.119  14.355  49.221  1.00  0.00     0.058 A 
HETATM    7  C3  UNL     1     -41.146  13.640  48.811  1.00  0.00     0.063 A 
HETATM    8  C4  UNL     1     -41.262  15.066  47.990  1.00  0.00     0.058 A 
HETATM    9  C5  UNL     1     -41.151  15.819  49.226  1.00  0.00     0.050 A 
HETATM   10  C6  UNL     1     -41.231  13.637  47.990  1.00  0.00     0.063 A 
HETATM   11  C7  UNL     1     -41.289  14.350  47.580  1.00  0.00     0.061 A 
HETATM   12  C8  UNL     1     -41.062  15.828  50.081  1.00  0.00     0.027 A 
HETATM   13  C9  UNL     1     -41.002  15.086  50.508  1.00  0.00     0.025 A 
ENDROOT
TORSDOF 19
ENDMDL
