MODEL 1
REMARK VINA RESULT:     170.3      0.000      0.000
REMARK  29 active torsions:
REMARK  status: ('A' for Active; 'I' for Inactive)
REMARK    1  A    between atoms: O1_1  and  O3_3 
REMARK    2  A    between atoms: O1_1  and  O4_4 
REMARK    3  A    between atoms: O1_1  and  C2_6 
REMARK    4  A    between atoms: O2_2  and  C4_8 
REMARK    5  A    between atoms: C1_5  and  C2_6 
REMARK    6  A    between atoms: C1_5  and  C4_8 
REMARK    7  A    between atoms: C1_5  and  C11_15 
REMARK    8  A    between atoms: C1_5  and  C13_17 
REMARK    9  A    between atoms: C2_6  and  C3_7 
REMARK   10  A    between atoms: C2_6  and  C12_16 
REMARK   11  A    between atoms: C2_6  and  C14_18 
REMARK   12  A    between atoms: C3_7  and  C4_8 
REMARK   13  A    between atoms: C3_7  and  C7_11 
REMARK   14  A    between atoms: C3_7  and  C11_15 
REMARK   15  A    between atoms: C4_8  and  C8_12 
REMARK   16  A    between atoms: C4_8  and  C12_16 
REMARK   17  A    between atoms: C5_9  and  C6_10 
REMARK   18  A    between atoms: C5_9  and  C7_11 
REMARK   19  A    between atoms: C5_9  and  C8_12 
REMARK   20  A    between atoms: C6_10  and  C9_13 
REMARK   21  A    between atoms: C6_10  and  C10_14 
REMARK   22  A    between atoms: C7_11  and  C9_13 
REMARK   23  A    between atoms: C7_11  and  C13_17 
REMARK   24  A    between atoms: C8_12  and  C10_14 
REMARK   25  A    between atoms: C8_12  and  C14_18 
REMARK   26  A    between atoms: C9_13  and  C11_15 
REMARK   27  A    between atoms: C10_14  and  C12_16 
REMARK   28  A    between atoms: C11_15  and  C13_17 
REMARK   29  A    between atoms: C12_16  and  C14_18 
ROOT
HETATM    1  O1  UNL     1     -39.989  13.101  49.571  1.00  0.00     0.000 OA
HETATM    2  O2  UNL     1     -38.674  15.833  50.489  1.00  0.00     0.000 OA
HETATM    3  O3  UNL     1     -41.193  13.734  49.317  1.00  0.00     0.000 OA
HETATM    4  O4  UNL     1     -38.806  12.420  49.809  1.00  0.00     0.000 OA
HETATM    5  C1  UNL     1     -40.087  14.451  49.793  1.00  0.00     0.000 A 
HETATM    6  C2  UNL     1     -38.904  13.800  50.037  1.00  0.00     0.000 A 
HETATM    7  C3  UNL     1     -39.758  15.134  50.023  1.00  0.00     0.000 A 
HETATM    8  C4  UNL     1     -38.575  14.483  50.267  1.00  0.00     0.000 A 
HETATM    9  C5  UNL     1     -39.660  13.784  49.800  1.00  0.00     0.000 A 
HETATM   10  C6  UNL     1     -39.003  15.150  50.259  1.00  0.00     0.000 A 
HETATM   11  C7  UNL     1     -40.873  14.421  49.545  1.00  0.00     0.000 A 
HETATM   12  C8  UNL     1     -38.470  13.098  50.040  1.00  0.00     0.000 A 
HETATM   13  C9  UNL     1     -40.193  15.836  50.020  1.00  0.00     0.000 A 
HETATM   14  C10 UNL     1     -37.789  14.513  50.515  1.00  0.00     0.000 A 
HETATM   15  C11 UNL     1     -41.323  15.113  49.535  1.00  0.00     0.000 A 
HETATM   16  C12 UNL     1     -37.682  13.109  50.285  1.00  0.00     0.000 A 
HETATM   17  C13 UNL     1     -40.980  15.824  49.774  1.00  0.00     0.000 A 
HETATM   18  C14 UNL     1     -37.339  13.820  50.525  1.00  0.00     0.000 A 
ENDROOT
TORSDOF 29
ENDMDL
MODEL 2
REMARK VINA RESULT:     173.1      0.826      3.093
REMARK  29 active torsions:
REMARK  status: ('A' for Active; 'I' for Inactive)
REMARK    1  A    between atoms: O1_1  and  O3_3 
REMARK    2  A    between atoms: O1_1  and  O4_4 
REMARK    3  A    between atoms: O1_1  and  C2_6 
REMARK    4  A    between atoms: O2_2  and  C4_8 
REMARK    5  A    between atoms: C1_5  and  C2_6 
REMARK    6  A    between atoms: C1_5  and  C4_8 
REMARK    7  A    between atoms: C1_5  and  C11_15 
REMARK    8  A    between atoms: C1_5  and  C13_17 
REMARK    9  A    between atoms: C2_6  and  C3_7 
REMARK   10  A    between atoms: C2_6  and  C12_16 
REMARK   11  A    between atoms: C2_6  and  C14_18 
REMARK   12  A    between atoms: C3_7  and  C4_8 
REMARK   13  A    between atoms: C3_7  and  C7_11 
REMARK   14  A    between atoms: C3_7  and  C11_15 
REMARK   15  A    between atoms: C4_8  and  C8_12 
REMARK   16  A    between atoms: C4_8  and  C12_16 
REMARK   17  A    between atoms: C5_9  and  C6_10 
REMARK   18  A    between atoms: C5_9  and  C7_11 
REMARK   19  A    between atoms: C5_9  and  C8_12 
REMARK   20  A    between atoms: C6_10  and  C9_13 
REMARK   21  A    between atoms: C6_10  and  C10_14 
REMARK   22  A    between atoms: C7_11  and  C9_13 
REMARK   23  A    between atoms: C7_11  and  C13_17 
REMARK   24  A    between atoms: C8_12  and  C10_14 
REMARK   25  A    between atoms: C8_12  and  C14_18 
REMARK   26  A    between atoms: C9_13  and  C11_15 
REMARK   27  A    between atoms: C10_14  and  C12_16 
REMARK   28  A    between atoms: C11_15  and  C13_17 
REMARK   29  A    between atoms: C12_16  and  C14_18 
ROOT
HETATM    1  O1  UNL     1     -39.171  15.708  49.860  1.00  0.00     0.000 OA
HETATM    2  O2  UNL     1     -39.239  12.608  50.510  1.00  0.00     0.000 OA
HETATM    3  O3  UNL     1     -37.796  15.741  50.023  1.00  0.00     0.000 OA
HETATM    4  O4  UNL     1     -40.545  15.730  49.685  1.00  0.00     0.000 OA
HETATM    5  C1  UNL     1     -38.515  14.548  50.187  1.00  0.00     0.000 A 
HETATM    6  C2  UNL     1     -39.877  14.543  50.020  1.00  0.00     0.000 A 
HETATM    7  C3  UNL     1     -38.532  13.773  50.349  1.00  0.00     0.000 A 
HETATM    8  C4  UNL     1     -39.894  13.768  50.182  1.00  0.00     0.000 A 
HETATM    9  C5  UNL     1     -39.188  14.933  50.022  1.00  0.00     0.000 A 
HETATM   10  C6  UNL     1     -39.222  13.383  50.347  1.00  0.00     0.000 A 
HETATM   11  C7  UNL     1     -37.803  14.966  50.186  1.00  0.00     0.000 A 
HETATM   12  C8  UNL     1     -40.571  14.955  49.847  1.00  0.00     0.000 A 
HETATM   13  C9  UNL     1     -37.838  13.361  50.523  1.00  0.00     0.000 A 
HETATM   14  C10 UNL     1     -40.606  13.350  50.183  1.00  0.00     0.000 A 
HETATM   15  C11 UNL     1     -37.100  14.570  50.357  1.00  0.00     0.000 A 
HETATM   16  C12 UNL     1     -41.292  14.554  49.843  1.00  0.00     0.000 A 
HETATM   17  C13 UNL     1     -37.118  13.763  50.526  1.00  0.00     0.000 A 
HETATM   18  C14 UNL     1     -41.310  13.747  50.012  1.00  0.00     0.000 A 
ENDROOT
TORSDOF 29
ENDMDL
