MODEL 1
REMARK VINA RESULT:     319.9      0.000      0.000
REMARK WARNING: 32 MAX_TORS EXCEEDED!!!
REMARK  41 active torsions:
REMARK  status: ('A' for Active; 'I' for Inactive)
REMARK    1  A    between atoms: O1_1  and  C5_9 
REMARK    2  A    between atoms: O1_1  and  C8_12 
REMARK    3  A    between atoms: O3_3  and  C17_21 
REMARK    4  A    between atoms: O4_4  and  C18_22 
REMARK    5  A    between atoms: C2_6  and  C3_7 
REMARK    6  A    between atoms: C2_6  and  C6_10 
REMARK    7  A    between atoms: C2_6  and  C11_15 
REMARK    8  A    between atoms: C2_6  and  C14_18 
REMARK    9  A    between atoms: C3_7  and  C4_8 
REMARK   10  A    between atoms: C3_7  and  C6_10 
REMARK   11  A    between atoms: C3_7  and  C9_13 
REMARK   12  A    between atoms: C3_7  and  C19_23 
REMARK   13  A    between atoms: C4_8  and  C7_11 
REMARK   14  A    between atoms: C4_8  and  C10_14 
REMARK   15  A    between atoms: C4_8  and  C20_24 
REMARK   16  A    between atoms: C5_9  and  C7_11 
REMARK   17  A    between atoms: C5_9  and  C13_17 
REMARK   18  A    between atoms: C6_10  and  C8_12 
REMARK   19  A    between atoms: C6_10  and  C12_16 
REMARK   20  A    between atoms: C7_11  and  C11_15 
REMARK   21  A    between atoms: C7_11  and  C12_16 
REMARK   22  A    between atoms: C7_11  and  C14_18 
REMARK   23  A    between atoms: C7_11  and  C18_22 
REMARK   24  A    between atoms: C8_12  and  C10_14 
REMARK   25  A    between atoms: C8_12  and  C17_21 
REMARK   26  A    between atoms: C8_12  and  C19_23 
REMARK   27  A    between atoms: C9_13  and  C10_14 
REMARK   28  A    between atoms: C9_13  and  C11_15 
REMARK   29  A    between atoms: C9_13  and  C18_22 
REMARK   30  A    between atoms: C9_13  and  C20_24 
REMARK   31  A    between atoms: C10_14  and  C15_19 
REMARK   32  A    between atoms: C10_14  and  C19_23 
REMARK   33  A    between atoms: C11_15  and  C13_17 
REMARK   34  A    between atoms: C11_15  and  C16_20 
REMARK   35  A    between atoms: C11_15  and  C20_24 
REMARK   36  A    between atoms: C12_16  and  C13_17 
REMARK   37  A    between atoms: C13_17  and  C14_18 
REMARK   38  A    between atoms: C15_19  and  C17_21 
REMARK   39  A    between atoms: C16_20  and  C18_22 
REMARK   40  A    between atoms: C17_21  and  C19_23 
REMARK   41  A    between atoms: C18_22  and  C20_24 
ROOT
HETATM    1  O1  UNL     1     -38.636  12.196  47.571  1.00  0.00     0.000 OA
HETATM    2  O2  UNL     1     -38.362  10.757  47.558  1.00  0.00    -0.373 OA
HETATM    3  O3  UNL     1     -36.336  14.083  47.597  1.00  0.00     0.000 OA
HETATM    4  O4  UNL     1     -41.324  15.276  47.594  1.00  0.00     0.000 OA
HETATM    5  C1  UNL     1     -39.313  12.660  47.574  1.00  0.00     0.027 A 
HETATM    6  C2  UNL     1     -39.964  12.161  47.567  1.00  0.00     0.031 A 
HETATM    7  C3  UNL     1     -38.569  13.015  47.580  1.00  0.00     0.018 A 
HETATM    8  C4  UNL     1     -39.816  13.313  47.579  1.00  0.00     0.010 A 
HETATM    9  C5  UNL     1     -39.687  11.384  47.560  1.00  0.00     0.053 A 
HETATM   10  C6  UNL     1     -38.867  11.410  47.563  1.00  0.00     0.061 A 
HETATM   11  C7  UNL     1     -40.775  12.309  47.566  1.00  0.00     0.023 A 
HETATM   12  C8  UNL     1     -37.889  12.549  47.577  1.00  0.00     0.019 A 
HETATM   13  C9  UNL     1     -39.501  14.077  47.587  1.00  0.00     0.006 A 
HETATM   14  C10 UNL     1     -38.505  13.838  47.588  1.00  0.00     0.007 A 
HETATM   15  C11 UNL     1     -40.634  13.205  47.575  1.00  0.00     0.010 A 
HETATM   16  C12 UNL     1     -40.220  10.755  47.552  1.00  0.00     0.038 A 
HETATM   17  C13 UNL     1     -41.310  11.680  47.558  1.00  0.00     0.025 A 
HETATM   18  C14 UNL     1     -41.032  10.903  47.551  1.00  0.00     0.027 A 
HETATM   19  C15 UNL     1     -37.144  12.905  47.583  1.00  0.00     0.004 A 
HETATM   20  C16 UNL     1     -40.004  14.731  47.593  1.00  0.00     0.001 A 
HETATM   21  C17 UNL     1     -37.760  14.194  47.594  1.00  0.00     0.004 A 
HETATM   22  C18 UNL     1     -41.136  13.859  47.580  1.00  0.00     0.003 A 
HETATM   23  C19 UNL     1     -37.080  13.727  47.591  1.00  0.00     0.004 A 
HETATM   24  C20 UNL     1     -40.821  14.622  47.589  1.00  0.00     0.001 A 
ENDROOT
TORSDOF 41
ENDMDL
