MODEL 1
REMARK VINA RESULT:     336.6      0.000      0.000
REMARK WARNING: 32 MAX_TORS EXCEEDED!!!
REMARK  37 active torsions:
REMARK  status: ('A' for Active; 'I' for Inactive)
REMARK    1  A    between atoms: S1_1  and  C11_20 
REMARK    2  A    between atoms: S1_1  and  C12_21 
REMARK    3  A    between atoms: F1_2  and  N2_8 
REMARK    4  A    between atoms: F1_2  and  C5_14 
REMARK    5  A    between atoms: F2_3  and  C4_13 
REMARK    6  A    between atoms: F2_3  and  C5_14 
REMARK    7  A    between atoms: O1_5  and  C11_20 
REMARK    8  A    between atoms: O2_6  and  C8_17 
REMARK    9  A    between atoms: O2_6  and  C12_21 
REMARK   10  A    between atoms: N2_8  and  C4_13 
REMARK   11  A    between atoms: N2_8  and  C16_25 
REMARK   12  A    between atoms: C1_10  and  C2_11 
REMARK   13  A    between atoms: C1_10  and  C5_14 
REMARK   14  A    between atoms: C2_11  and  C8_17 
REMARK   15  A    between atoms: C2_11  and  C9_18 
REMARK   16  A    between atoms: C3_12  and  C4_13 
REMARK   17  A    between atoms: C3_12  and  C6_15 
REMARK   18  A    between atoms: C3_12  and  C13_22 
REMARK   19  A    between atoms: C4_13  and  C5_14 
REMARK   20  A    between atoms: C4_13  and  C16_25 
REMARK   21  A    between atoms: C5_14  and  C16_25 
REMARK   22  A    between atoms: C6_15  and  C7_16 
REMARK   23  A    between atoms: C6_15  and  C8_17 
REMARK   24  A    between atoms: C6_15  and  C9_18 
REMARK   25  A    between atoms: C6_15  and  C12_21 
REMARK   26  A    between atoms: C7_16  and  C8_17 
REMARK   27  A    between atoms: C7_16  and  C11_20 
REMARK   28  A    between atoms: C8_17  and  C11_20 
REMARK   29  A    between atoms: C8_17  and  C12_21 
REMARK   30  A    between atoms: C9_18  and  C10_19 
REMARK   31  A    between atoms: C9_18  and  C15_24 
REMARK   32  A    between atoms: C10_19  and  C13_22 
REMARK   33  A    between atoms: C10_19  and  C14_23 
REMARK   34  A    between atoms: C11_20  and  C12_21 
REMARK   35  A    between atoms: C13_22  and  C15_24 
REMARK   36  A    between atoms: C14_23  and  C15_24 
REMARK   37  A    between atoms: C15_24  and  C17_26 
ROOT
HETATM    1  S1  UNL     1     -40.685  15.225  50.413  1.00  0.00    -0.128 SA
HETATM    2  O1  UNL     1     -41.255  14.629  50.437  1.00  0.00     0.000 OA
HETATM    3  O2  UNL     1     -40.115  15.821  50.390  1.00  0.00     0.000 OA
HETATM    4  N3  UNL     1     -41.281  15.795  50.405  1.00  0.00    -0.082 NA
HETATM    5  C8  UNL     1     -40.089  14.655  50.422  1.00  0.00     0.043 A 
ENDROOT
BRANCH   1   6
HETATM    6  C11 UNL     1     -40.284  13.854  50.446  1.00  0.00     0.043 A 
HETATM    7  C6  UNL     1     -39.687  13.284  50.466  1.00  0.00     0.026 A 
HETATM    8  C2  UNL     1     -38.896  13.515  50.474  1.00  0.00     0.030 A 
HETATM    9  N1  UNL     1     -38.300  12.945  50.494  1.00  0.00     0.000 N 
HETATM   10  C7  UNL     1     -38.701  14.316  50.462  1.00  0.00     0.027 A 
HETATM   11  N2  UNL     1     -37.488  13.093  50.504  1.00  0.00     0.000 N 
HETATM   12  C12 UNL     1     -39.297  14.886  50.441  1.00  0.00     0.043 A 
HETATM   13  C5  UNL     1     -37.097  12.367  50.524  1.00  0.00     0.246 A 
HETATM   14  C1  UNL     1     -38.410  12.128  50.508  1.00  0.00     0.078 A 
HETATM   15  C3  UNL     1     -39.137  11.737  50.505  1.00  0.00     0.033 A 
HETATM   16  C4  UNL     1     -37.667  11.770  50.527  1.00  0.00     0.185 A 
HETATM   17  C9  UNL     1     -39.839  12.170  50.485  1.00  0.00     0.013 A 
HETATM   18  C10 UNL     1     -39.162  10.913  50.520  1.00  0.00     0.010 A 
HETATM   19  C14 UNL     1     -40.565  11.780  50.482  1.00  0.00     0.003 A 
HETATM   20  C15 UNL     1     -39.889  10.521  50.516  1.00  0.00     0.003 A 
HETATM   21  C13 UNL     1     -40.590  10.955  50.497  1.00  0.00     0.003 A 
HETATM   22  C17 UNL     1     -41.317  10.564  50.494  1.00  0.00     0.000 A 
BRANCH  11  23
HETATM   23  F1  UNL     1     -36.169  13.074  50.524  1.00  0.00    -0.288 F 
HETATM   24  C16 UNL     1     -36.255  13.030  49.705  1.00  0.00     0.323 A 
HETATM   25  F2  UNL     1     -36.342  12.987  48.886  1.00  0.00    -0.368 F 
HETATM   26  F3  UNL     1     -35.435  13.012  49.619  1.00  0.00    -0.243 F 
ENDBRANCH  11  23
ENDBRANCH   1   6
TORSDOF 37
ENDMDL
