MODEL 1
REMARK VINA RESULT:     213.3      0.000      0.000
REMARK  28 active torsions:
REMARK  status: ('A' for Active; 'I' for Inactive)
REMARK    1  A    between atoms: O1_2  and  C8_11 
REMARK    2  A    between atoms: N1_3  and  C9_12 
REMARK    3  A    between atoms: C1_4  and  C3_6 
REMARK    4  A    between atoms: C1_4  and  C6_9 
REMARK    5  A    between atoms: C2_5  and  C5_8 
REMARK    6  A    between atoms: C2_5  and  C7_10 
REMARK    7  A    between atoms: C2_5  and  C9_12 
REMARK    8  A    between atoms: C2_5  and  C11_14 
REMARK    9  A    between atoms: C3_6  and  C5_8 
REMARK   10  A    between atoms: C3_6  and  C9_12 
REMARK   11  A    between atoms: C3_6  and  C15_18 
REMARK   12  A    between atoms: C4_7  and  C5_8 
REMARK   13  A    between atoms: C4_7  and  C12_15 
REMARK   14  A    between atoms: C4_7  and  C16_19 
REMARK   15  A    between atoms: C5_8  and  C17_20 
REMARK   16  A    between atoms: C6_9  and  C7_10 
REMARK   17  A    between atoms: C6_9  and  C13_16 
REMARK   18  A    between atoms: C7_10  and  C12_15 
REMARK   19  A    between atoms: C7_10  and  C16_19 
REMARK   20  A    between atoms: C8_11  and  C9_12 
REMARK   21  A    between atoms: C8_11  and  C15_18 
REMARK   22  A    between atoms: C9_12  and  C14_17 
REMARK   23  A    between atoms: C9_12  and  C17_20 
REMARK   24  A    between atoms: C10_13  and  C11_14 
REMARK   25  A    between atoms: C12_15  and  C13_16 
REMARK   26  A    between atoms: C13_16  and  C16_19 
REMARK   27  A    between atoms: C14_17  and  C15_18 
REMARK   28  A    between atoms: C15_18  and  C17_20 
ROOT
HETATM    1 CL1  UNL     1     -37.651  15.489  50.381  1.00  0.00    -0.291 Cl
HETATM    2  O1  UNL     1     -38.630  15.198  50.414  1.00  0.00     0.000 OA
HETATM    3  N1  UNL     1     -40.272  12.720  50.501  1.00  0.00     0.000 N 
HETATM    4  C1  UNL     1     -38.908  14.421  50.435  1.00  0.00     0.020 A 
HETATM    5  C2  UNL     1     -39.185  13.644  50.455  1.00  0.00     0.018 A 
HETATM    6  C3  UNL     1     -39.995  13.497  50.481  1.00  0.00     0.009 A 
HETATM    7  C4  UNL     1     -38.131  14.144  50.417  1.00  0.00     0.028 A 
HETATM    8  C5  UNL     1     -39.684  14.699  50.452  1.00  0.00     0.013 A 
HETATM    9  C6  UNL     1     -37.502  14.678  50.390  1.00  0.00     0.036 A 
HETATM   10  C7  UNL     1     -37.982  13.332  50.425  1.00  0.00     0.033 A 
HETATM   11  C8  UNL     1     -39.833  15.511  50.444  1.00  0.00     0.009 A 
HETATM   12  C9  UNL     1     -40.313  14.165  50.479  1.00  0.00     0.009 A 
HETATM   13  C10 UNL     1     -41.084  12.571  50.527  1.00  0.00     0.001 A 
HETATM   14  C11 UNL     1     -39.739  12.091  50.496  1.00  0.00     0.003 A 
HETATM   15  C12 UNL     1     -36.726  14.401  50.372  1.00  0.00     0.038 A 
HETATM   16  C13 UNL     1     -37.206  13.055  50.407  1.00  0.00     0.032 A 
HETATM   17  C14 UNL     1     -40.609  15.788  50.462  1.00  0.00     0.004 A 
HETATM   18  C15 UNL     1     -41.089  14.442  50.497  1.00  0.00     0.004 A 
HETATM   19  C16 UNL     1     -36.577  13.589  50.381  1.00  0.00     0.032 A 
HETATM   20  C17 UNL     1     -41.238  15.254  50.488  1.00  0.00     0.004 A 
ENDROOT
TORSDOF 28
ENDMDL
