MODEL 1
REMARK VINA RESULT:     307.7      0.000      0.000
REMARK  25 active torsions:
REMARK  status: ('A' for Active; 'I' for Inactive)
REMARK    1  A    between atoms: O1_1  and  C6_9 
REMARK    2  A    between atoms: O1_1  and  C11_14 
REMARK    3  A    between atoms: O2_2  and  C6_9 
REMARK    4  A    between atoms: O2_2  and  C14_17 
REMARK    5  A    between atoms: C1_4  and  C5_8 
REMARK    6  A    between atoms: C1_4  and  C6_9 
REMARK    7  A    between atoms: C2_5  and  C5_8 
REMARK    8  A    between atoms: C3_6  and  C4_7 
REMARK    9  A    between atoms: C3_6  and  C5_8 
REMARK   10  A    between atoms: C4_7  and  C6_9 
REMARK   11  A    between atoms: C4_7  and  C7_10 
REMARK   12  A    between atoms: C4_7  and  C8_11 
REMARK   13  A    between atoms: C5_8  and  C6_9 
REMARK   14  A    between atoms: C6_9  and  C9_12 
REMARK   15  A    between atoms: C6_9  and  C10_13 
REMARK   16  A    between atoms: C7_10  and  C8_11 
REMARK   17  A    between atoms: C10_13  and  C12_15 
REMARK   18  A    between atoms: C10_13  and  C14_17 
REMARK   19  A    between atoms: C12_15  and  C17_20 
REMARK   20  A    between atoms: C13_16  and  C14_17 
REMARK   21  A    between atoms: C13_16  and  C16_19 
REMARK   22  A    between atoms: C14_17  and  C15_18 
REMARK   23  A    between atoms: C14_17  and  C17_20 
REMARK   24  A    between atoms: C15_18  and  C16_19 
REMARK   25  A    between atoms: C16_19  and  C17_20 
ROOT
HETATM    1  O1  UNL     1     -38.595  12.740  48.936  1.00  0.00     0.000 OA
HETATM    2  O2  UNL     1     -38.854  14.136  49.101  1.00  0.00     0.000 OA
HETATM    3  O3  UNL     1     -37.115  12.931  49.641  1.00  0.00     0.000 OA
HETATM    4  C1  UNL     1     -40.315  11.803  47.972  1.00  0.00     0.000 A 
HETATM    5  C2  UNL     1     -40.814  12.453  47.879  1.00  0.00     0.000 A 
HETATM    6  C3  UNL     1     -40.573  13.198  48.137  1.00  0.00     0.000 A 
HETATM    7  C4  UNL     1     -39.576  11.899  48.325  1.00  0.00     0.000 A 
HETATM    8  C5  UNL     1     -39.335  12.644  48.583  1.00  0.00     0.000 A 
HETATM    9  C6  UNL     1     -39.834  13.294  48.490  1.00  0.00     0.000 A 
HETATM   10  C7  UNL     1     -40.880  11.318  47.620  1.00  0.00     0.000 A 
HETATM   11  C8  UNL     1     -40.165  10.998  47.878  1.00  0.00     0.000 A 
HETATM   12  C9  UNL     1     -41.073  13.849  48.043  1.00  0.00     0.000 A 
HETATM   13  C10 UNL     1     -38.354  13.486  49.195  1.00  0.00     0.000 A 
HETATM   14  C11 UNL     1     -37.615  13.582  49.547  1.00  0.00     0.000 A 
HETATM   15  C12 UNL     1     -37.375  14.328  49.806  1.00  0.00     0.000 A 
HETATM   16  C13 UNL     1     -36.635  14.423  50.158  1.00  0.00     0.000 A 
HETATM   17  C14 UNL     1     -37.874  14.977  49.712  1.00  0.00     0.000 A 
HETATM   18  C15 UNL     1     -36.394  15.168  50.417  1.00  0.00     0.000 A 
HETATM   19  C16 UNL     1     -37.633  15.723  49.971  1.00  0.00     0.000 A 
HETATM   20  C17 UNL     1     -36.894  15.818  50.323  1.00  0.00     0.000 A 
ENDROOT
TORSDOF 25
ENDMDL
