MODEL 1
REMARK VINA RESULT:     416.7      0.000      0.000
REMARK  29 active torsions:
REMARK  status: ('A' for Active; 'I' for Inactive)
REMARK    1  A    between atoms: N1_5  and  C4_11 
REMARK    2  A    between atoms: N1_5  and  C9_16 
REMARK    3  A    between atoms: N2_6  and  C2_9 
REMARK    4  A    between atoms: N3_7  and  C15_22 
REMARK    5  A    between atoms: C1_8  and  C4_11 
REMARK    6  A    between atoms: C1_8  and  C7_14 
REMARK    7  A    between atoms: C2_9  and  C4_11 
REMARK    8  A    between atoms: C2_9  and  C3_10 
REMARK    9  A    between atoms: C2_9  and  C5_12 
REMARK   10  A    between atoms: C4_11  and  C8_15 
REMARK   11  A    between atoms: C5_12  and  C6_13 
REMARK   12  A    between atoms: C5_12  and  C11_18 
REMARK   13  A    between atoms: C6_13  and  C11_18 
REMARK   14  A    between atoms: C6_13  and  C13_20 
REMARK   15  A    between atoms: C6_13  and  C15_22 
REMARK   16  A    between atoms: C7_14  and  C9_16 
REMARK   17  A    between atoms: C7_14  and  C10_17 
REMARK   18  A    between atoms: C7_14  and  C12_19 
REMARK   19  A    between atoms: C9_16  and  C10_17 
REMARK   20  A    between atoms: C10_17  and  C11_18 
REMARK   21  A    between atoms: C10_17  and  C14_21 
REMARK   22  A    between atoms: C10_17  and  C15_22 
REMARK   23  A    between atoms: C11_18  and  C13_20 
REMARK   24  A    between atoms: C12_19  and  C14_21 
REMARK   25  A    between atoms: C13_20  and  C14_21 
REMARK   26  A    between atoms: C13_20  and  C17_24 
REMARK   27  A    between atoms: C14_21  and  C15_22 
REMARK   28  A    between atoms: C14_21  and  C16_23 
REMARK   29  A    between atoms: C14_21  and  C17_24 
ROOT
HETATM    1  F1  UNL     1     -40.056  13.752  47.864  1.00  0.00    -0.548 F 
HETATM    2  O1  UNL     1     -37.802  15.318  49.128  1.00  0.00     0.000 OA
HETATM    3  O2  UNL     1     -35.845  14.726  50.522  1.00  0.00    -0.323 OA
HETATM    4  O3  UNL     1     -36.632  15.709  49.848  1.00  0.00    -0.323 OA
HETATM    5  N1  UNL     1     -39.780  12.140  48.291  1.00  0.00     0.000 N 
HETATM    6  N2  UNL     1     -40.813  10.958  47.783  1.00  0.00     0.000 N 
HETATM    7  N3  UNL     1     -37.398  12.958  49.755  1.00  0.00     0.000 N 
HETATM    8  C1  UNL     1     -39.643  11.355  48.502  1.00  0.00     0.046 A 
HETATM    9  C2  UNL     1     -40.434  12.335  47.827  1.00  0.00     0.060 A 
HETATM   10  C3  UNL     1     -40.159  10.763  48.247  1.00  0.00     0.028 A 
HETATM   11  C4  UNL     1     -40.950  11.744  47.572  1.00  0.00     0.028 A 
HETATM   12  C5  UNL     1     -39.264  12.732  48.546  1.00  0.00     0.068 A 
HETATM   13  C6  UNL     1     -38.051  13.156  49.290  1.00  0.00     0.082 A 
HETATM   14  C7  UNL     1     -38.582  12.533  49.030  1.00  0.00     0.056 A 
HETATM   15  C8  UNL     1     -41.328  10.367  47.529  1.00  0.00     0.005 A 
HETATM   16  C9  UNL     1     -39.405  13.552  48.328  1.00  0.00     0.080 A 
HETATM   17  C10 UNL     1     -38.185  13.942  49.081  1.00  0.00     0.090 A 
HETATM   18  C11 UNL     1     -38.861  14.161  48.598  1.00  0.00     0.077 A 
HETATM   19  C12 UNL     1     -37.263  12.171  49.964  1.00  0.00     0.022 A 
HETATM   20  C13 UNL     1     -37.667  14.531  49.337  1.00  0.00     0.112 A 
HETATM   21  C14 UNL     1     -36.880  13.547  50.010  1.00  0.00     0.090 A 
HETATM   22  C15 UNL     1     -37.015  14.334  49.801  1.00  0.00     0.147 A 
HETATM   23  C16 UNL     1     -36.611  11.974  50.428  1.00  0.00     0.010 A 
HETATM   24  C17 UNL     1     -36.498  14.923  50.057  1.00  0.00     0.194 A 
ENDROOT
TORSDOF 29
ENDMDL
