MODEL 1
REMARK VINA RESULT:     145.7      0.000      0.000
REMARK  11 active torsions:
REMARK  status: ('A' for Active; 'I' for Inactive)
REMARK    1  A    between atoms: N3_3  and  N6_6 
REMARK    2  A    between atoms: N4_4  and  N5_5 
REMARK    3  A    between atoms: N4_4  and  N6_6 
REMARK    4  A    between atoms: N5_5  and  N6_6 
REMARK    5  A    between atoms: N6_6  and  C3_9 
REMARK    6  A    between atoms: C1_7  and  C2_8 
REMARK    7  A    between atoms: C1_7  and  C3_9 
REMARK    8  A    between atoms: C2_8  and  C3_9 
REMARK    9  A    between atoms: C4_10  and  C5_11 
REMARK   10  A    between atoms: C6_12  and  C7_13 
REMARK   11  A    between atoms: C8_14  and  C9_15 
ROOT
HETATM    1  N1  UNL     1     -40.617  15.466  49.867  1.00  0.00     0.000 N 
HETATM    2  N2  UNL     1     -40.542  13.411  47.882  1.00  0.00     0.000 N 
HETATM    3  N3  UNL     1     -38.460  13.591  49.832  1.00  0.00     0.000 N 
HETATM    4  N4  UNL     1     -40.579  14.438  48.874  1.00  0.00     0.000 N 
HETATM    5  N5  UNL     1     -39.538  14.528  49.849  1.00  0.00     0.000 N 
HETATM    6  N6  UNL     1     -39.501  13.501  48.857  1.00  0.00     0.000 N 
HETATM    7  C1  UNL     1     -40.245  14.811  49.530  1.00  0.00     0.000 A 
HETATM    8  C2  UNL     1     -40.208  13.783  48.538  1.00  0.00     0.000 A 
HETATM    9  C3  UNL     1     -39.167  13.873  49.512  1.00  0.00     0.000 A 
HETATM   10  C4  UNL     1     -40.282  15.838  50.522  1.00  0.00     0.000 A 
HETATM   11  C5  UNL     1     -41.323  15.748  49.547  1.00  0.00     0.000 A 
HETATM   12  C6  UNL     1     -40.170  12.756  47.546  1.00  0.00     0.000 A 
HETATM   13  C7  UNL     1     -41.248  13.693  47.563  1.00  0.00     0.000 A 
HETATM   14  C8  UNL     1     -38.088  12.936  49.496  1.00  0.00     0.000 A 
HETATM   15  C9  UNL     1     -38.126  13.963  50.487  1.00  0.00     0.000 A 
ENDROOT
TORSDOF 11
ENDMDL
