MODEL 1
REMARK VINA RESULT:     219.8      0.000      0.000
REMARK  19 active torsions:
REMARK  status: ('A' for Active; 'I' for Inactive)
REMARK    1  A    between atoms: S1_1  and  C11_17 
REMARK    2  A    between atoms: O2_3  and  C9_15 
REMARK    3  A    between atoms: O2_3  and  C11_17 
REMARK    4  A    between atoms: O3_4  and  C12_18 
REMARK    5  A    between atoms: N2_6  and  C10_16 
REMARK    6  A    between atoms: N2_6  and  C11_17 
REMARK    7  A    between atoms: C2_8  and  C4_10 
REMARK    8  A    between atoms: C2_8  and  C5_11 
REMARK    9  A    between atoms: C2_8  and  C8_14 
REMARK   10  A    between atoms: C4_10  and  C9_15 
REMARK   11  A    between atoms: C5_11  and  C6_12 
REMARK   12  A    between atoms: C5_11  and  C9_15 
REMARK   13  A    between atoms: C5_11  and  C11_17 
REMARK   14  A    between atoms: C6_12  and  C9_15 
REMARK   15  A    between atoms: C6_12  and  C10_16 
REMARK   16  A    between atoms: C7_13  and  C8_14 
REMARK   17  A    between atoms: C9_15  and  C10_16 
REMARK   18  A    between atoms: C9_15  and  C11_17 
REMARK   19  A    between atoms: C10_16  and  C11_17 
ROOT
HETATM    1  S1  UNL     1     -40.382  15.574  49.685  1.00  0.00    -0.182 SA
HETATM    2  O2  UNL     1     -39.815  15.320  50.228  1.00  0.00     0.000 OA
HETATM    3  O3  UNL     1     -40.948  15.827  49.142  1.00  0.00     0.000 OA
HETATM    4  N2  UNL     1     -39.898  15.323  49.065  1.00  0.00     0.000 N 
HETATM    5  C9  UNL     1     -39.166  14.979  49.226  1.00  0.00     0.028 A 
HETATM    6  C12 UNL     1     -40.865  15.824  50.305  1.00  0.00     0.059 A 
ENDROOT
BRANCH   1   7
HETATM    7  C11 UNL     1     -38.917  14.885  50.007  1.00  0.00     0.028 A 
HETATM    8  C6  UNL     1     -38.185  14.541  50.168  1.00  0.00     0.016 A 
HETATM    9  C4  UNL     1     -38.092  13.722  50.109  1.00  0.00     0.015 A 
HETATM   10  C1  UNL     1     -37.359  13.378  50.270  1.00  0.00     0.004 A 
HETATM   11  C5  UNL     1     -38.731  13.250  49.889  1.00  0.00     0.015 A 
HETATM   12  O1  UNL     1     -36.720  13.852  50.490  1.00  0.00     0.000 OA
HETATM   13  C10 UNL     1     -39.463  13.594  49.728  1.00  0.00     0.017 A 
HETATM   14  C2  UNL     1     -37.266  12.561  50.211  1.00  0.00     0.003 A 
HETATM   15  N1  UNL     1     -36.534  12.217  50.372  1.00  0.00     0.000 N 
HETATM   16  C3  UNL     1     -36.440  11.399  50.313  1.00  0.00     0.000 A 
HETATM   17  C7  UNL     1     -35.708  11.055  50.474  1.00  0.00     0.000 A 
HETATM   18  C8  UNL     1     -37.080  10.926  50.094  1.00  0.00     0.000 A 
ENDBRANCH   1   7
TORSDOF 19
ENDMDL
