MODEL 1
REMARK VINA RESULT:      88.3      0.000      0.000
REMARK  17 active torsions:
REMARK  status: ('A' for Active; 'I' for Inactive)
REMARK    1  A    between atoms: O1_1  and  C3_9 
REMARK    2  A    between atoms: O2_2  and  C4_10 
REMARK    3  A    between atoms: O3_3  and  C5_11 
REMARK    4  A    between atoms: O4_4  and  C7_13 
REMARK    5  A    between atoms: N1_6  and  C4_10 
REMARK    6  A    between atoms: N1_6  and  C6_12 
REMARK    7  A    between atoms: N1_6  and  C8_14 
REMARK    8  A    between atoms: C1_7  and  C3_9 
REMARK    9  A    between atoms: C1_7  and  C4_10 
REMARK   10  A    between atoms: C2_8  and  C4_10 
REMARK   11  A    between atoms: C2_8  and  C5_11 
REMARK   12  A    between atoms: C2_8  and  C6_12 
REMARK   13  A    between atoms: C3_9  and  C5_11 
REMARK   14  A    between atoms: C4_10  and  C5_11 
REMARK   15  A    between atoms: C5_11  and  C7_13 
REMARK   16  A    between atoms: C5_11  and  C8_14 
REMARK   17  A    between atoms: C6_12  and  C7_13 
ROOT
HETATM    1  O1  UNL     1     -41.183  14.637  47.613  1.00  0.00     0.000 OA
HETATM    2  O2  UNL     1     -41.070  15.753  48.823  1.00  0.00     0.000 OA
HETATM    3  O3  UNL     1     -41.050  15.264  50.398  1.00  0.00     0.000 OA
HETATM    4  O4  UNL     1     -41.323  12.228  48.162  1.00  0.00     0.000 OA
HETATM    5  O5  UNL     1     -41.292  11.492  50.525  1.00  0.00    -0.359 OA
HETATM    6  N1  UNL     1     -41.209  13.344  49.371  1.00  0.00     0.000 N 
HETATM    7  C1  UNL     1     -41.220  13.588  48.583  1.00  0.00     0.026 A 
HETATM    8  C2  UNL     1     -41.173  14.392  48.400  1.00  0.00     0.009 A 
HETATM    9  C3  UNL     1     -41.116  14.950  49.006  1.00  0.00     0.007 A 
HETATM   10  C4  UNL     1     -41.106  14.705  49.793  1.00  0.00     0.007 A 
HETATM   11  C5  UNL     1     -41.153  13.902  49.976  1.00  0.00     0.045 A 
HETATM   12  C6  UNL     1     -41.276  13.031  47.979  1.00  0.00     0.028 A 
HETATM   13  C7  UNL     1     -41.256  12.541  49.554  1.00  0.00     0.099 A 
HETATM   14  C8  UNL     1     -41.246  12.295  50.342  1.00  0.00     0.140 A 
ENDROOT
TORSDOF 17
ENDMDL
