MODEL 1
REMARK VINA RESULT:     270.4      0.000      0.000
REMARK WARNING: 32 MAX_TORS EXCEEDED!!!
REMARK  46 active torsions:
REMARK  status: ('A' for Active; 'I' for Inactive)
REMARK    1  A    between atoms: O1_1  and  C6_11 
REMARK    2  A    between atoms: O2_2  and  C11_16 
REMARK    3  A    between atoms: O2_2  and  C14_19 
REMARK    4  A    between atoms: O3_3  and  C11_16 
REMARK    5  A    between atoms: O4_4  and  C17_22 
REMARK    6  A    between atoms: C1_6  and  C7_12 
REMARK    7  A    between atoms: C1_6  and  C8_13 
REMARK    8  A    between atoms: C1_6  and  C11_16 
REMARK    9  A    between atoms: C1_6  and  C12_17 
REMARK   10  A    between atoms: C1_6  and  C13_18 
REMARK   11  A    between atoms: C2_7  and  C4_9 
REMARK   12  A    between atoms: C2_7  and  C8_13 
REMARK   13  A    between atoms: C2_7  and  C9_14 
REMARK   14  A    between atoms: C2_7  and  C10_15 
REMARK   15  A    between atoms: C2_7  and  C12_17 
REMARK   16  A    between atoms: C3_8  and  C5_10 
REMARK   17  A    between atoms: C3_8  and  C6_11 
REMARK   18  A    between atoms: C3_8  and  C7_12 
REMARK   19  A    between atoms: C3_8  and  C10_15 
REMARK   20  A    between atoms: C4_9  and  C5_10 
REMARK   21  A    between atoms: C4_9  and  C6_11 
REMARK   22  A    between atoms: C4_9  and  C7_12 
REMARK   23  A    between atoms: C4_9  and  C11_16 
REMARK   24  A    between atoms: C5_10  and  C9_14 
REMARK   25  A    between atoms: C5_10  and  C6_11 
REMARK   26  A    between atoms: C5_10  and  C8_13 
REMARK   27  A    between atoms: C5_10  and  C10_15 
REMARK   28  A    between atoms: C5_10  and  C13_18 
REMARK   29  A    between atoms: C5_10  and  C15_20 
REMARK   30  A    between atoms: C6_11  and  C13_18 
REMARK   31  A    between atoms: C6_11  and  C8_13 
REMARK   32  A    between atoms: C6_11  and  C9_14 
REMARK   33  A    between atoms: C6_11  and  C16_21 
REMARK   34  A    between atoms: C6_11  and  C17_22 
REMARK   35  A    between atoms: C7_12  and  C12_17 
REMARK   36  A    between atoms: C8_13  and  C10_15 
REMARK   37  A    between atoms: C8_13  and  C9_14 
REMARK   38  A    between atoms: C8_13  and  C15_20 
REMARK   39  A    between atoms: C9_14  and  C10_15 
REMARK   40  A    between atoms: C10_15  and  C13_18 
REMARK   41  A    between atoms: C10_15  and  C16_21 
REMARK   42  A    between atoms: C11_16  and  C12_17 
REMARK   43  A    between atoms: C13_18  and  C15_20 
REMARK   44  A    between atoms: C13_18  and  C17_22 
REMARK   45  A    between atoms: C15_20  and  C16_21 
REMARK   46  A    between atoms: C16_21  and  C17_22 
ROOT
HETATM    1  O1  UNL     1     -37.302  13.375  50.343  1.00  0.00     0.000 OA
HETATM    2  O2  UNL     1     -39.457  15.409  50.435  1.00  0.00     0.000 OA
HETATM    3  O3  UNL     1     -36.662  15.414  50.246  1.00  0.00     0.000 OA
HETATM    4  O4  UNL     1     -37.531  11.341  50.413  1.00  0.00     0.000 OA
HETATM    5  N1  UNL     1     -40.446  14.944  50.515  1.00  0.00     0.000 N 
HETATM    6  C1  UNL     1     -38.441  14.089  50.402  1.00  0.00     0.000 A 
HETATM    7  C2  UNL     1     -39.051  14.643  50.428  1.00  0.00     0.000 A 
HETATM    8  C3  UNL     1     -39.835  14.390  50.488  1.00  0.00     0.000 A 
HETATM    9  C4  UNL     1     -37.657  14.342  50.342  1.00  0.00     0.000 A 
HETATM   10  C5  UNL     1     -39.031  13.598  50.455  1.00  0.00     0.000 A 
HETATM   11  C6  UNL     1     -38.613  13.283  50.435  1.00  0.00     0.000 A 
HETATM   12  C7  UNL     1     -38.879  15.449  50.395  1.00  0.00     0.000 A 
HETATM   13  C8  UNL     1     -40.007  13.584  50.521  1.00  0.00     0.000 A 
HETATM   14  C9  UNL     1     -40.177  13.845  50.526  1.00  0.00     0.000 A 
HETATM   15  C10 UNL     1     -39.395  13.031  50.494  1.00  0.00     0.000 A 
HETATM   16  C11 UNL     1     -38.097  15.701  50.335  1.00  0.00     0.000 A 
HETATM   17  C12 UNL     1     -37.485  15.148  50.309  1.00  0.00     0.000 A 
HETATM   18  C13 UNL     1     -38.001  12.729  50.408  1.00  0.00     0.000 A 
HETATM   19  C14 UNL     1     -40.890  15.689  50.525  1.00  0.00     0.000 A 
HETATM   20  C15 UNL     1     -39.568  12.224  50.527  1.00  0.00     0.000 A 
HETATM   21  C16 UNL     1     -38.173  11.923  50.441  1.00  0.00     0.000 A 
HETATM   22  C17 UNL     1     -38.957  11.670  50.501  1.00  0.00     0.000 A 
HETATM   23  C18 UNL     1     -37.712  10.493  50.448  1.00  0.00     0.000 A 
ENDROOT
TORSDOF 46
ENDMDL
