MODEL 1
REMARK VINA RESULT:     128.1      0.000      0.000
REMARK  22 active torsions:
REMARK  status: ('A' for Active; 'I' for Inactive)
REMARK    1  A    between atoms: C1_3  and  C4_6 
REMARK    2  A    between atoms: C1_3  and  C5_7 
REMARK    3  A    between atoms: C2_4  and  C3_5 
REMARK    4  A    between atoms: C2_4  and  C5_7 
REMARK    5  A    between atoms: C3_5  and  C4_6 
REMARK    6  A    between atoms: C3_5  and  C6_8 
REMARK    7  A    between atoms: C4_6  and  C5_7 
REMARK    8  A    between atoms: C4_6  and  C8_10 
REMARK    9  A    between atoms: C4_6  and  C12_14 
REMARK   10  A    between atoms: C5_7  and  C7_9 
REMARK   11  A    between atoms: C5_7  and  C11_13 
REMARK   12  A    between atoms: C6_8  and  C15_17 
REMARK   13  A    between atoms: C7_9  and  C8_10 
REMARK   14  A    between atoms: C7_9  and  C12_14 
REMARK   15  A    between atoms: C8_10  and  C11_13 
REMARK   16  A    between atoms: C9_11  and  C10_12 
REMARK   17  A    between atoms: C9_11  and  C14_16 
REMARK   18  A    between atoms: C10_12  and  C13_15 
REMARK   19  A    between atoms: C10_12  and  C15_17 
REMARK   20  A    between atoms: C11_13  and  C12_14 
REMARK   21  A    between atoms: C13_15  and  C14_16 
REMARK   22  A    between atoms: C14_16  and  C15_17 
ROOT
HETATM    1  O1  UNL     1     -40.671  13.756  47.559  1.00  0.00     0.000 OA
HETATM    2  O2  UNL     1     -41.324  12.908  50.250  1.00  0.00     0.000 OA
HETATM    3  C1  UNL     1     -41.006  13.119  48.835  1.00  0.00     0.000 A 
HETATM    4  C2  UNL     1     -40.838  13.770  48.367  1.00  0.00     0.000 A 
HETATM    5  C3  UNL     1     -41.137  13.381  49.600  1.00  0.00     0.000 A 
HETATM    6  C4  UNL     1     -40.864  14.438  48.842  1.00  0.00     0.000 A 
HETATM    7  C5  UNL     1     -41.050  14.197  49.608  1.00  0.00     0.000 A 
HETATM    8  C6  UNL     1     -41.039  12.335  48.580  1.00  0.00     0.000 A 
HETATM    9  C7  UNL     1     -40.742  15.238  48.679  1.00  0.00     0.000 A 
HETATM   10  C8  UNL     1     -41.114  14.755  50.212  1.00  0.00     0.000 A 
HETATM   11  C9  UNL     1     -40.894  12.152  47.788  1.00  0.00     0.000 A 
HETATM   12  C10 UNL     1     -41.217  11.733  49.116  1.00  0.00     0.000 A 
HETATM   13  C11 UNL     1     -40.807  15.796  49.284  1.00  0.00     0.000 A 
HETATM   14  C12 UNL     1     -40.993  15.555  50.049  1.00  0.00     0.000 A 
HETATM   15  C13 UNL     1     -40.927  11.368  47.533  1.00  0.00     0.000 A 
HETATM   16  C14 UNL     1     -41.249  10.949  48.861  1.00  0.00     0.000 A 
HETATM   17  C15 UNL     1     -41.104  10.767  48.070  1.00  0.00     0.000 A 
ENDROOT
TORSDOF 22
ENDMDL
