MODEL 1
REMARK VINA RESULT:     225.0      0.000      0.000
REMARK  20 active torsions:
REMARK  status: ('A' for Active; 'I' for Inactive)
REMARK    1  A    between atoms: O3_3  and  C3_7 
REMARK    2  A    between atoms: N1_4  and  C6_10 
REMARK    3  A    between atoms: C1_5  and  C4_8 
REMARK    4  A    between atoms: C1_5  and  C14_18 
REMARK    5  A    between atoms: C2_6  and  C3_7 
REMARK    6  A    between atoms: C2_6  and  C7_11 
REMARK    7  A    between atoms: C2_6  and  C8_12 
REMARK    8  A    between atoms: C2_6  and  C10_14 
REMARK    9  A    between atoms: C3_7  and  C4_8 
REMARK   10  A    between atoms: C3_7  and  C5_9 
REMARK   11  A    between atoms: C4_8  and  C6_10 
REMARK   12  A    between atoms: C4_8  and  C10_14 
REMARK   13  A    between atoms: C8_12  and  C11_15 
REMARK   14  A    between atoms: C9_13  and  C10_14 
REMARK   15  A    between atoms: C9_13  and  C13_17 
REMARK   16  A    between atoms: C10_14  and  C11_15 
REMARK   17  A    between atoms: C10_14  and  C12_16 
REMARK   18  A    between atoms: C11_15  and  C13_17 
REMARK   19  A    between atoms: C12_16  and  C13_17 
REMARK   20  A    between atoms: C13_17  and  C15_19 
ROOT
HETATM    1  O1  UNL     1     -37.618  14.875  50.413  1.00  0.00     0.000 OA
HETATM    2  O2  UNL     1     -36.654  10.382  50.074  1.00  0.00    -0.357 OA
HETATM    3  O3  UNL     1     -38.022  10.786  49.985  1.00  0.00     0.000 OA
HETATM    4  N1  UNL     1     -37.426  13.169  50.268  1.00  0.00     0.000 N 
HETATM    5  C1  UNL     1     -37.569  12.361  50.178  1.00  0.00     0.047 A 
HETATM    6  C2  UNL     1     -38.151  13.560  50.238  1.00  0.00     0.006 A 
HETATM    7  C3  UNL     1     -38.383  12.254  50.091  1.00  0.00     0.030 A 
HETATM    8  C4  UNL     1     -38.743  12.995  50.129  1.00  0.00     0.007 A 
HETATM    9  C5  UNL     1     -36.999  11.765  50.174  1.00  0.00     0.120 A 
HETATM   10  C6  UNL     1     -38.266  14.374  50.305  1.00  0.00     0.001 A 
HETATM   11  C7  UNL     1     -36.688  13.522  50.370  1.00  0.00     0.005 A 
HETATM   12  C8  UNL     1     -39.028  14.689  50.264  1.00  0.00     0.000 A 
HETATM   13  C9  UNL     1     -39.142  15.503  50.331  1.00  0.00     0.000 A 
HETATM   14  C10 UNL     1     -39.675  14.189  50.156  1.00  0.00     0.000 A 
HETATM   15  C11 UNL     1     -40.551  15.318  50.182  1.00  0.00     0.000 A 
HETATM   16  C12 UNL     1     -39.903  15.818  50.290  1.00  0.00     0.000 A 
HETATM   17  C13 UNL     1     -40.436  14.504  50.115  1.00  0.00     0.000 A 
HETATM   18  C14 UNL     1     -37.224  10.978  50.078  1.00  0.00     0.142 A 
HETATM   19  C15 UNL     1     -41.313  15.632  50.141  1.00  0.00     0.000 A 
ENDROOT
TORSDOF 20
ENDMDL
