MODEL 1
REMARK VINA RESULT:     258.6      0.000      0.000
REMARK  8 active torsions:
REMARK  status: ('A' for Active; 'I' for Inactive)
REMARK    1  A    between atoms: S1_1  and  N3_4 
REMARK    2  A    between atoms: S1_1  and  C4_11 
REMARK    3  A    between atoms: N1_2  and  N3_4 
REMARK    4  A    between atoms: N3_4  and  C5_12 
REMARK    5  A    between atoms: N4_5  and  N5_6 
REMARK    6  A    between atoms: C1_8  and  C6_13 
REMARK    7  A    between atoms: C2_9  and  C5_12 
REMARK    8  A    between atoms: C9_16  and  C10_17 
ROOT
HETATM    1  S1  UNL     1     -39.268  13.722  49.081  1.00  0.00    -0.202 SA
HETATM    2  N1  UNL     1     -41.093  15.776  48.990  1.00  0.00     0.000 N 
HETATM    3  N2  UNL     1     -37.906  12.020  48.995  1.00  0.00     0.000 N 
HETATM    4  N3  UNL     1     -40.048  15.180  49.569  1.00  0.00     0.000 N 
HETATM    5  N4  UNL     1     -36.902  11.016  49.160  1.00  0.00     0.398 N 
HETATM    6  N5  UNL     1     -36.975  12.110  50.076  1.00  0.00     0.381 N 
HETATM    7  N6  UNL     1     -35.612  10.407  49.990  1.00  0.00    -0.141 N 
HETATM    8  C1  UNL     1     -40.272  14.727  48.917  1.00  0.00     0.027 A 
HETATM    9  C2  UNL     1     -39.913  14.027  48.667  1.00  0.00     0.041 A 
HETATM   10  C3  UNL     1     -38.910  13.023  48.831  1.00  0.00     0.053 A 
HETATM   11  C4  UNL     1     -38.264  12.719  49.246  1.00  0.00     0.110 A 
HETATM   12  C5  UNL     1     -40.918  15.095  48.560  1.00  0.00     0.017 A 
HETATM   13  C6  UNL     1     -41.318  14.829  47.889  1.00  0.00     0.010 A 
HETATM   14  C7  UNL     1     -40.555  15.829  49.614  1.00  0.00     0.010 A 
HETATM   15  C8  UNL     1     -37.261  11.715  49.411  1.00  0.00     0.486 A 
HETATM   16  C9  UNL     1     -36.330  11.806  50.491  1.00  0.00     0.384 A 
HETATM   17  C10 UNL     1     -36.257  10.711  49.575  1.00  0.00     0.427 A 
ENDROOT
TORSDOF 8
ENDMDL
