MODEL 1
REMARK VINA RESULT:     199.5      0.000      0.000
REMARK  22 active torsions:
REMARK  status: ('A' for Active; 'I' for Inactive)
REMARK    1  A    between atoms: S1_1  and  O5_6 
REMARK    2  A    between atoms: S1_1  and  N3_9 
REMARK    3  A    between atoms: S1_1  and  C10_19 
REMARK    4  A    between atoms: O2_3  and  C1_10 
REMARK    5  A    between atoms: O3_4  and  C5_14 
REMARK    6  A    between atoms: N1_7  and  N2_8 
REMARK    7  A    between atoms: N1_7  and  C1_10 
REMARK    8  A    between atoms: N2_8  and  C9_18 
REMARK    9  A    between atoms: N3_9  and  C10_19 
REMARK   10  A    between atoms: C1_10  and  C3_12 
REMARK   11  A    between atoms: C1_10  and  C5_14 
REMARK   12  A    between atoms: C1_10  and  C8_17 
REMARK   13  A    between atoms: C2_11  and  C3_12 
REMARK   14  A    between atoms: C2_11  and  C6_15 
REMARK   15  A    between atoms: C3_12  and  C4_13 
REMARK   16  A    between atoms: C3_12  and  C7_16 
REMARK   17  A    between atoms: C4_13  and  C5_14 
REMARK   18  A    between atoms: C4_13  and  C8_17 
REMARK   19  A    between atoms: C5_14  and  C6_15 
REMARK   20  A    between atoms: C5_14  and  C11_20 
REMARK   21  A    between atoms: C6_15  and  C8_17 
REMARK   22  A    between atoms: C9_18  and  C10_19 
ROOT
HETATM    1  S1  UNL     1     -38.769  12.799  50.327  1.00  0.00    -0.175 SA
HETATM    2  O2  UNL     1     -40.237  13.118  50.127  1.00  0.00     0.000 OA
HETATM    3  O4  UNL     1     -37.076  11.392  50.510  1.00  0.00    -0.215 OA
HETATM    4  O5  UNL     1     -38.459  11.104  50.295  1.00  0.00     0.000 OA
HETATM    5  N1  UNL     1     -39.291  14.173  50.313  1.00  0.00     0.000 N 
HETATM    6  N2  UNL     1     -37.885  13.784  50.500  1.00  0.00     0.000 N 
HETATM    7  N3  UNL     1     -37.853  11.652  50.408  1.00  0.00     0.000 N 
HETATM    8  C3  UNL     1     -40.068  13.923  50.188  1.00  0.00     0.031 A 
HETATM    9  C7  UNL     1     -38.684  13.617  50.376  1.00  0.00     0.078 A 
HETATM   10  C9  UNL     1     -38.023  12.459  50.420  1.00  0.00     0.169 A 
HETATM   11  C10 UNL     1     -37.477  13.068  50.527  1.00  0.00     0.083 A 
ENDROOT
BRANCH   2  12
HETATM   12  C1  UNL     1     -40.675  14.479  50.125  1.00  0.00     0.007 A 
HETATM   13  C2  UNL     1     -40.889  14.408  49.331  1.00  0.00     0.007 A 
HETATM   14  O1  UNL     1     -40.777  13.693  48.936  1.00  0.00     0.000 OA
HETATM   15  C5  UNL     1     -41.214  15.053  48.933  1.00  0.00     0.002 A 
HETATM   16  C4  UNL     1     -40.786  15.193  50.521  1.00  0.00     0.007 A 
HETATM   17  C8  UNL     1     -41.326  15.769  49.329  1.00  0.00     0.002 A 
HETATM   18  C11 UNL     1     -40.991  13.623  48.143  1.00  0.00     0.001 A 
HETATM   19  C12 UNL     1     -40.880  12.908  47.747  1.00  0.00     0.000 A 
HETATM   20  O3  UNL     1     -41.317  14.268  47.745  1.00  0.00     0.000 OA
HETATM   21  C6  UNL     1     -41.112  15.838  50.123  1.00  0.00     0.002 A 
ENDBRANCH   2  12
TORSDOF 22
ENDMDL
