MODEL 1
REMARK VINA RESULT:      -0.2      0.000      0.000
REMARK  4 active torsions:
REMARK  status: ('A' for Active; 'I' for Inactive)
REMARK    1  A    between atoms: C2_3  and  C3_4 
REMARK    2  A    between atoms: C2_3  and  C4_5 
REMARK    3  A    between atoms: C3_4  and  C4_5 
REMARK    4  A    between atoms: C3_4  and  C5_6 
ROOT
HETATM    1 CL1  UNL     1     -41.328  15.838  50.155  1.00  0.00     0.000 Cl
ENDROOT
TORSDOF 4
ENDMDL
MODEL 2
REMARK VINA RESULT:       0.1      1.905      1.905
REMARK  4 active torsions:
REMARK  status: ('A' for Active; 'I' for Inactive)
REMARK    1  A    between atoms: C2_3  and  C3_4 
REMARK    2  A    between atoms: C2_3  and  C4_5 
REMARK    3  A    between atoms: C3_4  and  C4_5 
REMARK    4  A    between atoms: C3_4  and  C5_6 
ROOT
HETATM    1 CL1  UNL     1     -39.460  15.837  50.528  1.00  0.00     0.000 Cl
ENDROOT
TORSDOF 4
ENDMDL
MODEL 3
REMARK VINA RESULT:       1.4      1.391      1.391
REMARK  4 active torsions:
REMARK  status: ('A' for Active; 'I' for Inactive)
REMARK    1  A    between atoms: C2_3  and  C3_4 
REMARK    2  A    between atoms: C2_3  and  C4_5 
REMARK    3  A    between atoms: C3_4  and  C4_5 
REMARK    4  A    between atoms: C3_4  and  C5_6 
ROOT
HETATM    1 CL1  UNL     1     -41.328  14.705  49.348  1.00  0.00     0.000 Cl
ENDROOT
TORSDOF 4
ENDMDL
