MODEL 1
REMARK VINA RESULT:      37.2      0.000      0.000
REMARK  2 active torsions:
REMARK  status: ('A' for Active; 'I' for Inactive)
REMARK    1  A    between atoms: C1_4  and  C5_8 
REMARK    2  A    between atoms: C2_5  and  C6_9 
ROOT
HETATM    1  O1  UNL     1     -41.281  15.632  50.026  1.00  0.00    -0.310 OA
HETATM    2  O2  UNL     1     -40.421  15.084  49.024  1.00  0.00    -0.310 OA
HETATM    3  N1  UNL     1     -36.268  15.645  50.245  1.00  0.00    -0.297 NA
HETATM    4  C1  UNL     1     -38.445  15.750  50.358  1.00  0.00     0.101 A 
HETATM    5  C2  UNL     1     -39.103  15.528  49.913  1.00  0.00     0.128 A 
HETATM    6  C3  UNL     1     -37.686  15.587  50.079  1.00  0.00     0.116 A 
HETATM    7  C4  UNL     1     -39.863  15.691  50.192  1.00  0.00     0.206 A 
HETATM    8  C5  UNL     1     -37.027  15.809  50.524  1.00  0.00     0.125 A 
HETATM    9  C6  UNL     1     -40.522  15.469  49.747  1.00  0.00     0.241 A 
ENDROOT
TORSDOF 2
ENDMDL
