MODEL 1
REMARK VINA RESULT:      29.1      0.000      0.000
REMARK  12 active torsions:
REMARK  status: ('A' for Active; 'I' for Inactive)
REMARK    1  A    between atoms: O2_2  and  C1_4 
REMARK    2  A    between atoms: N1_3  and  C1_4 
REMARK    3  A    between atoms: C1_4  and  C7_10 
REMARK    4  A    between atoms: C1_4  and  C4_7 
REMARK    5  A    between atoms: C1_4  and  C6_9 
REMARK    6  A    between atoms: C2_5  and  C5_8 
REMARK    7  A    between atoms: C2_5  and  C7_10 
REMARK    8  A    between atoms: C3_6  and  C4_7 
REMARK    9  A    between atoms: C3_6  and  C6_9 
REMARK   10  A    between atoms: C3_6  and  C7_10 
REMARK   11  A    between atoms: C4_7  and  C5_8 
REMARK   12  A    between atoms: C5_8  and  C6_9 
ROOT
HETATM    1  O1  UNL     1     -38.784  15.810  50.170  1.00  0.00     0.000 OA
HETATM    2  C1  UNL     1     -39.779  15.699  49.150  1.00  0.00     0.045 A 
HETATM    3  C2  UNL     1     -39.578  15.782  49.945  1.00  0.00     0.028 A 
HETATM    4  C3  UNL     1     -40.572  15.670  48.925  1.00  0.00     0.028 A 
HETATM    5  C4  UNL     1     -40.170  15.836  50.517  1.00  0.00     0.018 A 
HETATM    6  C5  UNL     1     -41.165  15.724  49.497  1.00  0.00     0.018 A 
HETATM    7  C6  UNL     1     -40.963  15.807  50.293  1.00  0.00     0.018 A 
ENDROOT
BRANCH   3   8
HETATM    8  C7  UNL     1     -39.187  15.644  48.578  1.00  0.00     0.072 A 
HETATM    9  O2  UNL     1     -38.410  15.833  48.781  1.00  0.00     0.000 OA
HETATM   10  N1  UNL     1     -39.380  15.481  47.792  1.00  0.00    -0.225 NA
ENDBRANCH   3   8
TORSDOF 12
ENDMDL
MODEL 2
REMARK VINA RESULT:      30.1      1.786      2.314
REMARK  12 active torsions:
REMARK  status: ('A' for Active; 'I' for Inactive)
REMARK    1  A    between atoms: O2_2  and  C1_4 
REMARK    2  A    between atoms: N1_3  and  C1_4 
REMARK    3  A    between atoms: C1_4  and  C7_10 
REMARK    4  A    between atoms: C1_4  and  C4_7 
REMARK    5  A    between atoms: C1_4  and  C6_9 
REMARK    6  A    between atoms: C2_5  and  C5_8 
REMARK    7  A    between atoms: C2_5  and  C7_10 
REMARK    8  A    between atoms: C3_6  and  C4_7 
REMARK    9  A    between atoms: C3_6  and  C6_9 
REMARK   10  A    between atoms: C3_6  and  C7_10 
REMARK   11  A    between atoms: C4_7  and  C5_8 
REMARK   12  A    between atoms: C5_8  and  C6_9 
ROOT
HETATM    1  O1  UNL     1     -41.318  14.102  50.305  1.00  0.00     0.000 OA
HETATM    2  C1  UNL     1     -40.650  15.126  49.566  1.00  0.00     0.045 A 
HETATM    3  C2  UNL     1     -41.098  14.435  49.583  1.00  0.00     0.028 A 
HETATM    4  C3  UNL     1     -40.430  15.459  48.844  1.00  0.00     0.028 A 
HETATM    5  C4  UNL     1     -41.328  14.075  48.877  1.00  0.00     0.018 A 
HETATM    6  C5  UNL     1     -40.660  15.099  48.138  1.00  0.00     0.018 A 
HETATM    7  C6  UNL     1     -41.109  14.406  48.154  1.00  0.00     0.018 A 
ENDROOT
BRANCH   3   8
HETATM    8  C7  UNL     1     -40.420  15.486  50.272  1.00  0.00     0.072 A 
HETATM    9  O2  UNL     1     -41.145  15.837  50.451  1.00  0.00     0.000 OA
HETATM   10  N1  UNL     1     -39.718  15.837  50.528  1.00  0.00    -0.225 NA
ENDBRANCH   3   8
TORSDOF 12
ENDMDL
