MODEL 1
REMARK VINA RESULT:     323.0      0.000      0.000
REMARK  21 active torsions:
REMARK  status: ('A' for Active; 'I' for Inactive)
REMARK    1  A    between atoms: O1_1  and  C7_12 
REMARK    2  A    between atoms: O2_2  and  C8_13 
REMARK    3  A    between atoms: O3_3  and  C12_17 
REMARK    4  A    between atoms: N1_4  and  C3_8 
REMARK    5  A    between atoms: N2_5  and  C12_17 
REMARK    6  A    between atoms: C2_7  and  C6_11 
REMARK    7  A    between atoms: C2_7  and  C8_13 
REMARK    8  A    between atoms: C4_9  and  C6_11 
REMARK    9  A    between atoms: C5_10  and  C6_11 
REMARK   10  A    between atoms: C7_12  and  C13_18 
REMARK   11  A    between atoms: C7_12  and  C14_19 
REMARK   12  A    between atoms: C7_12  and  C15_20 
REMARK   13  A    between atoms: C8_13  and  C14_19 
REMARK   14  A    between atoms: C9_14  and  C11_16 
REMARK   15  A    between atoms: C9_14  and  C13_18 
REMARK   16  A    between atoms: C10_15  and  C11_16 
REMARK   17  A    between atoms: C11_16  and  C12_17 
REMARK   18  A    between atoms: C11_16  and  C16_21 
REMARK   19  A    between atoms: C12_17  and  C13_18 
REMARK   20  A    between atoms: C14_19  and  C15_20 
REMARK   21  A    between atoms: C15_20  and  C16_21 
ROOT
HETATM    1  O1  UNL     1     -37.941  13.274  49.118  1.00  0.00     0.000 OA
HETATM    2  O2  UNL     1     -39.358  13.863  48.511  1.00  0.00     0.000 OA
HETATM    3  O3  UNL     1     -35.338  10.987  47.535  1.00  0.00     0.000 OA
HETATM    4  N1  UNL     1     -40.304  14.851  49.436  1.00  0.00     0.000 N 
HETATM    5  N2  UNL     1     -35.561  11.674  48.769  1.00  0.00     0.000 N 
HETATM    6  C1  UNL     1     -40.777  15.344  49.897  1.00  0.00     0.000 A 
HETATM    7  C2  UNL     1     -39.595  14.556  49.739  1.00  0.00     0.000 A 
HETATM    8  C3  UNL     1     -39.122  14.062  49.277  1.00  0.00     0.000 A 
HETATM    9  C4  UNL     1     -41.250  15.838  50.359  1.00  0.00     0.000 A 
HETATM   10  C5  UNL     1     -41.321  15.399  49.280  1.00  0.00     0.000 A 
HETATM   11  C6  UNL     1     -40.231  15.289  50.514  1.00  0.00     0.000 A 
HETATM   12  C7  UNL     1     -36.738  12.466  48.942  1.00  0.00     0.000 A 
HETATM   13  C8  UNL     1     -38.413  13.768  49.580  1.00  0.00     0.000 A 
HETATM   14  C9  UNL     1     -36.981  12.272  48.179  1.00  0.00     0.000 A 
HETATM   15  C10 UNL     1     -37.232  12.980  49.421  1.00  0.00     0.000 A 
HETATM   16  C11 UNL     1     -36.028  12.167  49.237  1.00  0.00     0.000 A 
HETATM   17  C12 UNL     1     -36.515  11.779  47.710  1.00  0.00     0.000 A 
HETATM   18  C13 UNL     1     -35.805  11.480  48.005  1.00  0.00     0.000 A 
HETATM   19  C14 UNL     1     -36.984  13.186  50.217  1.00  0.00     0.000 A 
HETATM   20  C15 UNL     1     -35.762  12.361  50.032  1.00  0.00     0.000 A 
HETATM   21  C16 UNL     1     -36.244  12.874  50.525  1.00  0.00     0.000 A 
ENDROOT
TORSDOF 21
ENDMDL
