MODEL 1
REMARK VINA RESULT:     362.1      0.000      0.000
REMARK  31 active torsions:
REMARK  status: ('A' for Active; 'I' for Inactive)
REMARK    1  A    between atoms: S1_1  and  N1_3 
REMARK    2  A    between atoms: S1_1  and  C3_6 
REMARK    3  A    between atoms: S1_1  and  C4_7 
REMARK    4  A    between atoms: S1_1  and  C9_12 
REMARK    5  A    between atoms: S1_1  and  C11_14 
REMARK    6  A    between atoms: O1_2  and  N1_3 
REMARK    7  A    between atoms: C1_4  and  C4_7 
REMARK    8  A    between atoms: C1_4  and  C9_12 
REMARK    9  A    between atoms: C2_5  and  C4_7 
REMARK   10  A    between atoms: C2_5  and  C9_12 
REMARK   11  A    between atoms: C3_6  and  C14_17 
REMARK   12  A    between atoms: C4_7  and  C8_11 
REMARK   13  A    between atoms: C5_8  and  C8_11 
REMARK   14  A    between atoms: C5_8  and  C9_12 
REMARK   15  A    between atoms: C5_8  and  C10_13 
REMARK   16  A    between atoms: C6_9  and  C11_14 
REMARK   17  A    between atoms: C6_9  and  C15_18 
REMARK   18  A    between atoms: C6_9  and  C16_19 
REMARK   19  A    between atoms: C7_10  and  C11_14 
REMARK   20  A    between atoms: C7_10  and  C15_18 
REMARK   21  A    between atoms: C8_11  and  C9_12 
REMARK   22  A    between atoms: C8_11  and  C12_15 
REMARK   23  A    between atoms: C9_12  and  C13_16 
REMARK   24  A    between atoms: C10_13  and  C18_21 
REMARK   25  A    between atoms: C11_14  and  C13_16 
REMARK   26  A    between atoms: C11_14  and  C14_17 
REMARK   27  A    between atoms: C12_15  and  C17_20 
REMARK   28  A    between atoms: C13_16  and  C16_19 
REMARK   29  A    between atoms: C14_17  and  C15_18 
REMARK   30  A    between atoms: C14_17  and  C19_22 
REMARK   31  A    between atoms: C17_20  and  C18_21 
ROOT
HETATM    1  S1  UNL     1     -38.077  12.870  49.900  1.00  0.00    -0.229 SA
HETATM    2  O1  UNL     1     -38.599  13.450  48.702  1.00  0.00     0.000 OA
HETATM    3  N1  UNL     1     -37.536  12.498  48.631  1.00  0.00     0.000 N 
HETATM    4  C1  UNL     1     -40.196  14.844  49.220  1.00  0.00     0.011 A 
HETATM    5  C2  UNL     1     -40.203  14.775  50.042  1.00  0.00     0.011 A 
HETATM    6  C3  UNL     1     -37.008  11.986  49.007  1.00  0.00     0.015 A 
HETATM    7  C4  UNL     1     -39.134  13.892  49.149  1.00  0.00     0.018 A 
HETATM    8  C5  UNL     1     -39.661  14.403  48.773  1.00  0.00     0.013 A 
HETATM    9  C6  UNL     1     -36.473  11.545  48.560  1.00  0.00     0.013 A 
HETATM   10  C7  UNL     1     -35.946  11.034  48.936  1.00  0.00     0.013 A 
HETATM   11  C8  UNL     1     -39.675  14.265  50.417  1.00  0.00     0.013 A 
HETATM   12  C9  UNL     1     -39.141  13.823  49.971  1.00  0.00     0.018 A 
HETATM   13  C10 UNL     1     -40.741  15.373  48.817  1.00  0.00     0.004 A 
HETATM   14  C11 UNL     1     -37.015  11.917  49.829  1.00  0.00     0.017 A 
HETATM   15  C12 UNL     1     -40.755  15.230  50.518  1.00  0.00     0.004 A 
HETATM   16  C13 UNL     1     -38.070  12.939  49.078  1.00  0.00     0.027 A 
HETATM   17  C14 UNL     1     -35.953  10.965  49.758  1.00  0.00     0.013 A 
HETATM   18  C15 UNL     1     -36.487  11.407  50.204  1.00  0.00     0.014 A 
HETATM   19  C16 UNL     1     -37.529  12.567  47.809  1.00  0.00     0.016 A 
HETATM   20  C17 UNL     1     -41.300  15.836  49.277  1.00  0.00     0.002 A 
HETATM   21  C18 UNL     1     -41.307  15.764  50.132  1.00  0.00     0.002 A 
HETATM   22  C19 UNL     1     -35.410  10.592  48.489  1.00  0.00     0.004 A 
ENDROOT
TORSDOF 31
ENDMDL
