MODEL 1
REMARK VINA RESULT:     266.0      0.000      0.000
REMARK  26 active torsions:
REMARK  status: ('A' for Active; 'I' for Inactive)
REMARK    1  A    between atoms: N2_2  and  C10_12 
REMARK    2  A    between atoms: N2_2  and  C19_21 
REMARK    3  A    between atoms: C1_3  and  C3_5 
REMARK    4  A    between atoms: C2_4  and  C4_6 
REMARK    5  A    between atoms: C2_4  and  C5_7 
REMARK    6  A    between atoms: C3_5  and  C4_6 
REMARK    7  A    between atoms: C5_7  and  C8_10 
REMARK    8  A    between atoms: C5_7  and  C11_13 
REMARK    9  A    between atoms: C6_8  and  C9_11 
REMARK   10  A    between atoms: C6_8  and  C11_13 
REMARK   11  A    between atoms: C6_8  and  C12_14 
REMARK   12  A    between atoms: C7_9  and  C12_14 
REMARK   13  A    between atoms: C8_10  and  C9_11 
REMARK   14  A    between atoms: C8_10  and  C13_15 
REMARK   15  A    between atoms: C9_11  and  C10_12 
REMARK   16  A    between atoms: C9_11  and  C19_21 
REMARK   17  A    between atoms: C10_12  and  C11_13 
REMARK   18  A    between atoms: C10_12  and  C15_17 
REMARK   19  A    between atoms: C11_13  and  C13_15 
REMARK   20  A    between atoms: C11_13  and  C14_16 
REMARK   21  A    between atoms: C12_14  and  C18_20 
REMARK   22  A    between atoms: C13_15  and  C15_17 
REMARK   23  A    between atoms: C14_16  and  C15_17 
REMARK   24  A    between atoms: C15_17  and  C17_19 
REMARK   25  A    between atoms: C16_18  and  C18_20 
REMARK   26  A    between atoms: C18_20  and  C19_21 
ROOT
HETATM    1  N1  UNL     1     -37.039  14.914  50.444  1.00  0.00     0.000 N 
HETATM    2  N2  UNL     1     -39.733  12.533  50.509  1.00  0.00     0.000 N 
HETATM    3  C1  UNL     1     -36.371  14.430  50.442  1.00  0.00     0.000 A 
HETATM    4  C2  UNL     1     -36.785  15.699  50.430  1.00  0.00     0.000 A 
HETATM    5  C3  UNL     1     -35.960  15.700  50.420  1.00  0.00     0.000 A 
HETATM    6  C4  UNL     1     -35.704  14.916  50.428  1.00  0.00     0.000 A 
HETATM    7  C5  UNL     1     -37.823  14.659  50.457  1.00  0.00     0.000 A 
HETATM    8  C6  UNL     1     -37.994  13.851  50.470  1.00  0.00     0.000 A 
HETATM    9  C7  UNL     1     -38.778  13.596  50.483  1.00  0.00     0.000 A 
HETATM   10  C8  UNL     1     -39.392  14.147  50.483  1.00  0.00     0.000 A 
HETATM   11  C9  UNL     1     -38.948  12.788  50.496  1.00  0.00     0.000 A 
HETATM   12  C10 UNL     1     -40.176  13.891  50.496  1.00  0.00     0.000 A 
HETATM   13  C11 UNL     1     -39.221  14.954  50.470  1.00  0.00     0.000 A 
HETATM   14  C12 UNL     1     -38.336  12.238  50.496  1.00  0.00     0.000 A 
HETATM   15  C13 UNL     1     -40.619  15.250  50.483  1.00  0.00     0.000 A 
HETATM   16  C14 UNL     1     -40.790  14.443  50.496  1.00  0.00     0.000 A 
HETATM   17  C15 UNL     1     -39.835  15.506  50.470  1.00  0.00     0.000 A 
HETATM   18  C16 UNL     1     -38.505  11.430  50.509  1.00  0.00     0.000 A 
HETATM   19  C17 UNL     1     -41.233  15.801  50.483  1.00  0.00     0.000 A 
HETATM   20  C18 UNL     1     -39.903  11.725  50.522  1.00  0.00     0.000 A 
HETATM   21  C19 UNL     1     -39.290  11.175  50.522  1.00  0.00     0.000 A 
ENDROOT
TORSDOF 26
ENDMDL
MODEL 2
REMARK VINA RESULT:     267.9      2.461      4.600
REMARK  26 active torsions:
REMARK  status: ('A' for Active; 'I' for Inactive)
REMARK    1  A    between atoms: N2_2  and  C10_12 
REMARK    2  A    between atoms: N2_2  and  C19_21 
REMARK    3  A    between atoms: C1_3  and  C3_5 
REMARK    4  A    between atoms: C2_4  and  C4_6 
REMARK    5  A    between atoms: C2_4  and  C5_7 
REMARK    6  A    between atoms: C3_5  and  C4_6 
REMARK    7  A    between atoms: C5_7  and  C8_10 
REMARK    8  A    between atoms: C5_7  and  C11_13 
REMARK    9  A    between atoms: C6_8  and  C9_11 
REMARK   10  A    between atoms: C6_8  and  C11_13 
REMARK   11  A    between atoms: C6_8  and  C12_14 
REMARK   12  A    between atoms: C7_9  and  C12_14 
REMARK   13  A    between atoms: C8_10  and  C9_11 
REMARK   14  A    between atoms: C8_10  and  C13_15 
REMARK   15  A    between atoms: C9_11  and  C10_12 
REMARK   16  A    between atoms: C9_11  and  C19_21 
REMARK   17  A    between atoms: C10_12  and  C11_13 
REMARK   18  A    between atoms: C10_12  and  C15_17 
REMARK   19  A    between atoms: C11_13  and  C13_15 
REMARK   20  A    between atoms: C11_13  and  C14_16 
REMARK   21  A    between atoms: C12_14  and  C18_20 
REMARK   22  A    between atoms: C13_15  and  C15_17 
REMARK   23  A    between atoms: C14_16  and  C15_17 
REMARK   24  A    between atoms: C15_17  and  C17_19 
REMARK   25  A    between atoms: C16_18  and  C18_20 
REMARK   26  A    between atoms: C18_20  and  C19_21 
ROOT
HETATM    1  N1  UNL     1     -40.173  11.744  47.873  1.00  0.00     0.000 N 
HETATM    2  N2  UNL     1     -39.717  15.171  48.860  1.00  0.00     0.000 N 
HETATM    3  C1  UNL     1     -40.971  11.615  48.033  1.00  0.00     0.000 A 
HETATM    4  C2  UNL     1     -39.857  11.044  47.568  1.00  0.00     0.000 A 
HETATM    5  C3  UNL     1     -40.462  10.484  47.541  1.00  0.00     0.000 A 
HETATM    6  C4  UNL     1     -41.150  10.836  47.828  1.00  0.00     0.000 A 
HETATM    7  C5  UNL     1     -39.760  12.448  47.995  1.00  0.00     0.000 A 
HETATM    8  C6  UNL     1     -40.151  13.106  48.305  1.00  0.00     0.000 A 
HETATM    9  C7  UNL     1     -39.739  13.809  48.428  1.00  0.00     0.000 A 
HETATM   10  C8  UNL     1     -38.936  13.856  48.240  1.00  0.00     0.000 A 
HETATM   11  C9  UNL     1     -40.129  14.467  48.738  1.00  0.00     0.000 A 
HETATM   12  C10 UNL     1     -38.525  14.561  48.363  1.00  0.00     0.000 A 
HETATM   13  C11 UNL     1     -38.547  13.199  47.930  1.00  0.00     0.000 A 
HETATM   14  C12 UNL     1     -40.930  14.421  48.925  1.00  0.00     0.000 A 
HETATM   15  C13 UNL     1     -37.332  13.950  47.865  1.00  0.00     0.000 A 
HETATM   16  C14 UNL     1     -37.722  14.608  48.175  1.00  0.00     0.000 A 
HETATM   17  C15 UNL     1     -37.744  13.246  47.742  1.00  0.00     0.000 A 
HETATM   18  C16 UNL     1     -41.321  15.078  49.235  1.00  0.00     0.000 A 
HETATM   19  C17 UNL     1     -36.530  13.997  47.677  1.00  0.00     0.000 A 
HETATM   20  C18 UNL     1     -40.107  15.829  49.171  1.00  0.00     0.000 A 
HETATM   21  C19 UNL     1     -40.909  15.782  49.358  1.00  0.00     0.000 A 
ENDROOT
TORSDOF 26
ENDMDL
