MODEL 1
REMARK VINA RESULT:     336.4      0.000      0.000
REMARK  30 active torsions:
REMARK  status: ('A' for Active; 'I' for Inactive)
REMARK    1  A    between atoms: F1_1  and  C9_16 
REMARK    2  A    between atoms: F1_1  and  C15_22 
REMARK    3  A    between atoms: O1_2  and  C11_18 
REMARK    4  A    between atoms: N2_6  and  C13_20 
REMARK    5  A    between atoms: N2_6  and  C14_21 
REMARK    6  A    between atoms: N2_6  and  C16_23 
REMARK    7  A    between atoms: N3_7  and  C10_17 
REMARK    8  A    between atoms: C1_8  and  C7_14 
REMARK    9  A    between atoms: C4_11  and  C5_12 
REMARK   10  A    between atoms: C4_11  and  C8_15 
REMARK   11  A    between atoms: C4_11  and  C11_18 
REMARK   12  A    between atoms: C4_11  and  C12_19 
REMARK   13  A    between atoms: C5_12  and  C6_13 
REMARK   14  A    between atoms: C5_12  and  C12_19 
REMARK   15  A    between atoms: C5_12  and  C17_24 
REMARK   16  A    between atoms: C6_13  and  C7_14 
REMARK   17  A    between atoms: C6_13  and  C11_18 
REMARK   18  A    between atoms: C6_13  and  C16_23 
REMARK   19  A    between atoms: C7_14  and  C10_17 
REMARK   20  A    between atoms: C7_14  and  C16_23 
REMARK   21  A    between atoms: C8_15  and  C15_22 
REMARK   22  A    between atoms: C9_16  and  C10_17 
REMARK   23  A    between atoms: C9_16  and  C14_21 
REMARK   24  A    between atoms: C9_16  and  C16_23 
REMARK   25  A    between atoms: C10_17  and  C14_21 
REMARK   26  A    between atoms: C10_17  and  C13_20 
REMARK   27  A    between atoms: C11_18  and  C12_19 
REMARK   28  A    between atoms: C12_19  and  C15_22 
REMARK   29  A    between atoms: C12_19  and  C17_24 
REMARK   30  A    between atoms: C15_22  and  C16_23 
ROOT
HETATM    1  F1  UNL     1     -37.181  12.948  49.849  1.00  0.00    -0.528 F 
HETATM    2  O1  UNL     1     -39.059  11.000  48.504  1.00  0.00     0.000 OA
HETATM    3  O2  UNL     1     -41.328  11.167  47.530  1.00  0.00    -0.323 OA
HETATM    4  O3  UNL     1     -40.172  10.390  47.848  1.00  0.00    -0.323 OA
HETATM    5  N1  UNL     1     -40.258  13.165  48.524  1.00  0.00     0.000 N 
HETATM    6  N2  UNL     1     -37.999  14.426  49.862  1.00  0.00     0.000 N 
HETATM    7  N3  UNL     1     -37.291  15.761  50.524  1.00  0.00     0.019 N 
HETATM    8  C1  UNL     1     -40.658  13.887  48.530  1.00  0.00     0.054 A 
HETATM    9  C2  UNL     1     -41.325  14.335  48.347  1.00  0.00    -0.027 A 
HETATM   10  C3  UNL     1     -40.682  14.688  48.726  1.00  0.00    -0.027 A 
HETATM   11  C4  UNL     1     -39.501  13.109  48.849  1.00  0.00     0.092 A 
HETATM   12  C5  UNL     1     -40.614  12.499  48.193  1.00  0.00     0.104 A 
HETATM   13  C6  UNL     1     -39.102  12.387  48.843  1.00  0.00     0.095 A 
HETATM   14  C7  UNL     1     -39.141  13.809  49.191  1.00  0.00     0.091 A 
HETATM   15  C8  UNL     1     -38.353  13.758  49.531  1.00  0.00     0.117 A 
HETATM   16  C9  UNL     1     -37.243  14.373  50.188  1.00  0.00     0.227 A 
HETATM   17  C10 UNL     1     -38.401  15.147  49.867  1.00  0.00     0.239 A 
HETATM   18  C11 UNL     1     -40.215  11.777  48.186  1.00  0.00     0.149 A 
HETATM   19  C12 UNL     1     -39.459  11.721  48.511  1.00  0.00     0.113 A 
HETATM   20  C13 UNL     1     -36.889  15.041  50.519  1.00  0.00     0.269 A 
HETATM   21  C14 UNL     1     -38.047  15.814  50.198  1.00  0.00     0.269 A 
HETATM   22  C15 UNL     1     -38.314  12.316  49.178  1.00  0.00     0.084 A 
HETATM   23  C16 UNL     1     -37.937  13.006  49.525  1.00  0.00     0.108 A 
HETATM   24  C17 UNL     1     -40.571  11.111  47.855  1.00  0.00     0.195 A 
ENDROOT
TORSDOF 30
ENDMDL
