MODEL 1
REMARK VINA RESULT:     241.2      0.000      0.000
REMARK  19 active torsions:
REMARK  status: ('A' for Active; 'I' for Inactive)
REMARK    1  A    between atoms: C4_5  and  C5_6 
REMARK    2  A    between atoms: C5_6  and  C7_8 
REMARK    3  A    between atoms: C5_6  and  C11_12 
REMARK    4  A    between atoms: C5_6  and  C12_13 
REMARK    5  A    between atoms: C6_7  and  C7_8 
REMARK    6  A    between atoms: C6_7  and  C9_10 
REMARK    7  A    between atoms: C7_8  and  C8_9 
REMARK    8  A    between atoms: C7_8  and  C10_11 
REMARK    9  A    between atoms: C7_8  and  C13_14 
REMARK   10  A    between atoms: C8_9  and  C11_12 
REMARK   11  A    between atoms: C8_9  and  C12_13 
REMARK   12  A    between atoms: C8_9  and  C16_17 
REMARK   13  A    between atoms: C9_10  and  C17_18 
REMARK   14  A    between atoms: C10_11  and  C18_19 
REMARK   15  A    between atoms: C11_12  and  C14_15 
REMARK   16  A    between atoms: C12_13  and  C13_14 
REMARK   17  A    between atoms: C12_13  and  C15_16 
REMARK   18  A    between atoms: C14_15  and  C17_18 
REMARK   19  A    between atoms: C15_16  and  C18_19 
ROOT
HETATM    1  N1  UNL     1     -40.326  15.293  50.478  1.00  0.00    -0.275 NA
HETATM    2  C1  UNL     1     -36.313  12.924  50.524  1.00  0.00     0.000 A 
HETATM    3  C2  UNL     1     -36.208  13.742  50.520  1.00  0.00     0.001 A 
HETATM    4  C3  UNL     1     -37.018  12.495  50.521  1.00  0.00     0.001 A 
HETATM    5  C4  UNL     1     -36.783  14.334  50.512  1.00  0.00     0.003 A 
HETATM    6  C5  UNL     1     -38.053  13.562  50.506  1.00  0.00     0.012 A 
HETATM    7  C6  UNL     1     -37.792  12.780  50.513  1.00  0.00     0.004 A 
HETATM    8  C7  UNL     1     -37.604  14.254  50.506  1.00  0.00     0.011 A 
HETATM    9  C8  UNL     1     -38.871  13.667  50.499  1.00  0.00     0.023 A 
HETATM   10  C9  UNL     1     -36.858  11.652  50.527  1.00  0.00     0.000 A 
HETATM   11  C10 UNL     1     -36.415  15.111  50.510  1.00  0.00     0.001 A 
HETATM   12  C11 UNL     1     -38.460  12.239  50.511  1.00  0.00     0.003 A 
HETATM   13  C12 UNL     1     -38.114  14.945  50.498  1.00  0.00     0.012 A 
HETATM   14  C13 UNL     1     -39.189  14.428  50.492  1.00  0.00     0.040 A 
HETATM   15  C14 UNL     1     -37.513  11.095  50.525  1.00  0.00     0.000 A 
HETATM   16  C15 UNL     1     -36.909  15.813  50.502  1.00  0.00     0.001 A 
HETATM   17  C16 UNL     1     -40.008  14.533  50.485  1.00  0.00     0.071 A 
HETATM   18  C17 UNL     1     -38.320  11.391  50.517  1.00  0.00     0.000 A 
HETATM   19  C18 UNL     1     -37.765  15.730  50.496  1.00  0.00     0.002 A 
HETATM   20  C19 UNL     1     -41.144  15.398  50.471  1.00  0.00     0.088 A 
ENDROOT
TORSDOF 19
ENDMDL
