MODEL 1
REMARK VINA RESULT:     577.1      0.000      0.000
REMARK WARNING: 32 MAX_TORS EXCEEDED!!!
REMARK  34 active torsions:
REMARK  status: ('A' for Active; 'I' for Inactive)
REMARK    1  A    between atoms: O1_1  and  C1_8 
REMARK    2  A    between atoms: O1_1  and  C10_17 
REMARK    3  A    between atoms: O1_1  and  C17_24 
REMARK    4  A    between atoms: O2_2  and  C9_16 
REMARK    5  A    between atoms: N1_6  and  C5_12 
REMARK    6  A    between atoms: N1_6  and  C11_18 
REMARK    7  A    between atoms: N2_7  and  C1_8 
REMARK    8  A    between atoms: N2_7  and  C6_13 
REMARK    9  A    between atoms: N2_7  and  C17_24 
REMARK   10  A    between atoms: C1_8  and  C5_12 
REMARK   11  A    between atoms: C1_8  and  C8_15 
REMARK   12  A    between atoms: C2_9  and  C4_11 
REMARK   13  A    between atoms: C2_9  and  C5_12 
REMARK   14  A    between atoms: C2_9  and  C8_15 
REMARK   15  A    between atoms: C3_10  and  C7_14 
REMARK   16  A    between atoms: C5_12  and  C17_24 
REMARK   17  A    between atoms: C6_13  and  C7_14 
REMARK   18  A    between atoms: C6_13  and  C13_20 
REMARK   19  A    between atoms: C7_14  and  C10_17 
REMARK   20  A    between atoms: C7_14  and  C12_19 
REMARK   21  A    between atoms: C8_15  and  C11_18 
REMARK   22  A    between atoms: C8_15  and  C18_25 
REMARK   23  A    between atoms: C9_16  and  C11_18 
REMARK   24  A    between atoms: C10_17  and  C13_20 
REMARK   25  A    between atoms: C12_19  and  C16_23 
REMARK   26  A    between atoms: C13_20  and  C15_22 
REMARK   27  A    between atoms: C14_21  and  C23_30 
REMARK   28  A    between atoms: C15_22  and  C16_23 
REMARK   29  A    between atoms: C18_25  and  C19_26 
REMARK   30  A    between atoms: C18_25  and  C22_29 
REMARK   31  A    between atoms: C19_26  and  C21_28 
REMARK   32  A    between atoms: C19_26  and  C23_30 
REMARK   33  A    between atoms: C21_28  and  C22_29 
REMARK   34  A    between atoms: C22_29  and  C23_30 
ROOT
HETATM    1  O1  UNL     1     -37.524  15.343  49.020  1.00  0.00     0.000 OA
HETATM    2  O4  UNL     1     -35.627  15.672  49.637  1.00  0.00    -0.359 OA
HETATM    3  O5  UNL     1     -36.960  15.690  49.124  1.00  0.00     0.000 OA
HETATM    4  N2  UNL     1     -37.149  14.109  49.557  1.00  0.00     0.000 N 
HETATM    5  C5  UNL     1     -37.731  14.563  49.190  1.00  0.00     0.052 A 
HETATM    6  C7  UNL     1     -37.185  13.320  49.795  1.00  0.00     0.024 A 
HETATM    7  C10 UNL     1     -36.434  14.495  49.705  1.00  0.00     0.099 A 
HETATM    8  C13 UNL     1     -36.442  13.079  50.154  1.00  0.00     0.023 A 
HETATM    9  C16 UNL     1     -36.353  12.275  50.445  1.00  0.00     0.004 A 
HETATM   10  C17 UNL     1     -36.341  15.286  49.488  1.00  0.00     0.140 A 
ENDROOT
BRANCH   1  11
HETATM   11  C1  UNL     1     -38.495  14.339  48.971  1.00  0.00     0.029 A 
HETATM   12  N1  UNL     1     -37.872  13.879  48.687  1.00  0.00     0.000 N 
HETATM   13  C4  UNL     1     -37.999  13.087  48.493  1.00  0.00     0.080 A 
HETATM   14  C2  UNL     1     -39.222  13.955  49.039  1.00  0.00     0.028 A 
HETATM   15  C8  UNL     1     -38.749  12.757  48.582  1.00  0.00     0.041 A 
HETATM   16  C11 UNL     1     -37.376  12.628  48.209  1.00  0.00     0.098 A 
HETATM   17  O2  UNL     1     -37.502  11.836  48.014  1.00  0.00     0.000 OA
HETATM   18  O3  UNL     1     -36.625  12.959  48.120  1.00  0.00    -0.365 OA
HETATM   19  C9  UNL     1     -38.876  11.965  48.387  1.00  0.00     0.041 A 
HETATM   20  C20 UNL     1     -36.879  11.376  47.731  1.00  0.00     0.053 A 
HETATM   21  C24 UNL     1     -37.006  10.584  47.536  1.00  0.00    -0.028 A 
HETATM   22  C14 UNL     1     -39.627  11.633  48.476  1.00  0.00     0.008 A 
HETATM   23  C18 UNL     1     -40.250  12.093  48.759  1.00  0.00     0.008 A 
HETATM   24  C19 UNL     1     -39.753  10.842  48.281  1.00  0.00     0.004 A 
HETATM   25  C21 UNL     1     -41.000  11.762  48.848  1.00  0.00     0.001 A 
HETATM   26  C22 UNL     1     -40.503  10.511  48.370  1.00  0.00     0.001 A 
HETATM   27  C23 UNL     1     -41.127  10.970  48.654  1.00  0.00     0.001 A 
HETATM   28  C3  UNL     1     -39.942  14.259  49.302  1.00  0.00     0.007 A 
HETATM   29  C6  UNL     1     -40.114  15.023  49.561  1.00  0.00     0.006 A 
HETATM   30  C12 UNL     1     -40.941  15.088  49.782  1.00  0.00     0.003 A 
HETATM   31  C15 UNL     1     -41.246  15.838  50.071  1.00  0.00     0.003 A 
ENDBRANCH   1  11
TORSDOF 34
ENDMDL
MODEL 2
REMARK VINA RESULT:     577.8      1.485      3.473
REMARK WARNING: 32 MAX_TORS EXCEEDED!!!
REMARK  34 active torsions:
REMARK  status: ('A' for Active; 'I' for Inactive)
REMARK    1  A    between atoms: O1_1  and  C1_8 
REMARK    2  A    between atoms: O1_1  and  C10_17 
REMARK    3  A    between atoms: O1_1  and  C17_24 
REMARK    4  A    between atoms: O2_2  and  C9_16 
REMARK    5  A    between atoms: N1_6  and  C5_12 
REMARK    6  A    between atoms: N1_6  and  C11_18 
REMARK    7  A    between atoms: N2_7  and  C1_8 
REMARK    8  A    between atoms: N2_7  and  C6_13 
REMARK    9  A    between atoms: N2_7  and  C17_24 
REMARK   10  A    between atoms: C1_8  and  C5_12 
REMARK   11  A    between atoms: C1_8  and  C8_15 
REMARK   12  A    between atoms: C2_9  and  C4_11 
REMARK   13  A    between atoms: C2_9  and  C5_12 
REMARK   14  A    between atoms: C2_9  and  C8_15 
REMARK   15  A    between atoms: C3_10  and  C7_14 
REMARK   16  A    between atoms: C5_12  and  C17_24 
REMARK   17  A    between atoms: C6_13  and  C7_14 
REMARK   18  A    between atoms: C6_13  and  C13_20 
REMARK   19  A    between atoms: C7_14  and  C10_17 
REMARK   20  A    between atoms: C7_14  and  C12_19 
REMARK   21  A    between atoms: C8_15  and  C11_18 
REMARK   22  A    between atoms: C8_15  and  C18_25 
REMARK   23  A    between atoms: C9_16  and  C11_18 
REMARK   24  A    between atoms: C10_17  and  C13_20 
REMARK   25  A    between atoms: C12_19  and  C16_23 
REMARK   26  A    between atoms: C13_20  and  C15_22 
REMARK   27  A    between atoms: C14_21  and  C23_30 
REMARK   28  A    between atoms: C15_22  and  C16_23 
REMARK   29  A    between atoms: C18_25  and  C19_26 
REMARK   30  A    between atoms: C18_25  and  C22_29 
REMARK   31  A    between atoms: C19_26  and  C21_28 
REMARK   32  A    between atoms: C19_26  and  C23_30 
REMARK   33  A    between atoms: C21_28  and  C22_29 
REMARK   34  A    between atoms: C22_29  and  C23_30 
ROOT
HETATM    1  O1  UNL     1     -39.166  15.034  50.341  1.00  0.00     0.000 OA
HETATM    2  O4  UNL     1     -41.061  15.740  50.292  1.00  0.00    -0.359 OA
HETATM    3  O5  UNL     1     -39.690  15.409  50.524  1.00  0.00     0.000 OA
HETATM    4  N2  UNL     1     -39.747  14.308  49.298  1.00  0.00     0.000 N 
HETATM    5  C5  UNL     1     -39.077  14.461  49.754  1.00  0.00     0.052 A 
HETATM    6  C7  UNL     1     -39.835  13.773  48.676  1.00  0.00     0.024 A 
HETATM    7  C10 UNL     1     -40.419  14.748  49.488  1.00  0.00     0.099 A 
HETATM    8  C13 UNL     1     -40.635  13.802  48.363  1.00  0.00     0.023 A 
HETATM    9  C16 UNL     1     -40.855  13.290  47.709  1.00  0.00     0.004 A 
HETATM   10  C17 UNL     1     -40.389  15.299  50.102  1.00  0.00     0.140 A 
ENDROOT
BRANCH   1  11
HETATM   11  C1  UNL     1     -38.330  14.115  49.701  1.00  0.00     0.029 A 
HETATM   12  N1  UNL     1     -38.996  13.630  49.730  1.00  0.00     0.000 N 
HETATM   13  C4  UNL     1     -38.963  12.866  49.417  1.00  0.00     0.080 A 
HETATM   14  C2  UNL     1     -37.660  13.785  49.349  1.00  0.00     0.028 A 
HETATM   15  C8  UNL     1     -38.265  12.590  49.077  1.00  0.00     0.041 A 
HETATM   16  C11 UNL     1     -39.629  12.381  49.446  1.00  0.00     0.098 A 
HETATM   17  O2  UNL     1     -39.598  11.618  49.134  1.00  0.00     0.000 OA
HETATM   18  O3  UNL     1     -40.328  12.658  49.787  1.00  0.00    -0.365 OA
HETATM   19  C9  UNL     1     -38.233  11.827  48.765  1.00  0.00     0.041 A 
HETATM   20  C20 UNL     1     -40.264  11.132  49.163  1.00  0.00     0.053 A 
HETATM   21  C24 UNL     1     -40.231  10.369  48.850  1.00  0.00    -0.028 A 
HETATM   22  C14 UNL     1     -37.534  11.550  48.424  1.00  0.00     0.008 A 
HETATM   23  C18 UNL     1     -36.868  12.035  48.395  1.00  0.00     0.008 A 
HETATM   24  C19 UNL     1     -37.503  10.787  48.112  1.00  0.00     0.004 A 
HETATM   25  C21 UNL     1     -36.170  11.759  48.055  1.00  0.00     0.001 A 
HETATM   26  C22 UNL     1     -36.804  10.510  47.771  1.00  0.00     0.001 A 
HETATM   27  C23 UNL     1     -36.138  10.995  47.743  1.00  0.00     0.001 A 
HETATM   28  C3  UNL     1     -36.918  14.126  49.237  1.00  0.00     0.007 A 
HETATM   29  C6  UNL     1     -36.659  14.879  49.450  1.00  0.00     0.006 A 
HETATM   30  C12 UNL     1     -35.839  14.993  49.223  1.00  0.00     0.003 A 
HETATM   31  C15 UNL     1     -35.452  15.742  49.391  1.00  0.00     0.003 A 
ENDBRANCH   1  11
TORSDOF 34
ENDMDL
