MODEL 1
REMARK VINA RESULT:      29.6      0.000      0.000
REMARK  9 active torsions:
REMARK  status: ('A' for Active; 'I' for Inactive)
REMARK    1  A    between atoms: F1_1  and  C4_9 
REMARK    2  A    between atoms: O1_2  and  C3_8 
REMARK    3  A    between atoms: N1_4  and  N2_5 
REMARK    4  A    between atoms: N1_4  and  C3_8 
REMARK    5  A    between atoms: N2_5  and  C3_8 
REMARK    6  A    between atoms: C1_6  and  C2_7 
REMARK    7  A    between atoms: C1_6  and  C4_9 
REMARK    8  A    between atoms: C2_7  and  C3_8 
REMARK    9  A    between atoms: C3_8  and  C4_9 
ROOT
HETATM    1  F1  UNL     1     -41.166  13.415  48.151  1.00  0.00    -0.470 F 
HETATM    2  O1  UNL     1     -40.675  14.933  47.731  1.00  0.00     0.000 OA
HETATM    3  O2  UNL     1     -40.986  15.784  50.442  1.00  0.00     0.000 OA
HETATM    4  N1  UNL     1     -40.831  15.358  49.086  1.00  0.00     0.000 N 
HETATM    5  N2  UNL     1     -41.277  14.433  50.078  1.00  0.00     0.000 N 
HETATM    6  C1  UNL     1     -40.876  14.767  48.514  1.00  0.00     0.127 A 
HETATM    7  C2  UNL     1     -41.031  15.192  49.868  1.00  0.00     0.088 A 
HETATM    8  C3  UNL     1     -41.121  14.008  48.724  1.00  0.00     0.127 A 
HETATM    9  C4  UNL     1     -41.322  13.840  49.506  1.00  0.00     0.127 A 
ENDROOT
TORSDOF 9
ENDMDL
