MODEL 1
REMARK VINA RESULT:      75.9      0.000      0.000
REMARK  10 active torsions:
REMARK  status: ('A' for Active; 'I' for Inactive)
REMARK    1  A    between atoms: O2_2  and  C4_8 
REMARK    2  A    between atoms: C1_5  and  C3_7 
REMARK    3  A    between atoms: C1_5  and  C5_9 
REMARK    4  A    between atoms: C2_6  and  C4_8 
REMARK    5  A    between atoms: C2_6  and  C5_9 
REMARK    6  A    between atoms: C3_7  and  C4_8 
REMARK    7  A    between atoms: C3_7  and  C6_10 
REMARK    8  A    between atoms: C4_8  and  C5_9 
REMARK    9  A    between atoms: C4_8  and  C7_11 
REMARK   10  A    between atoms: C8_12  and  C9_13 
ROOT
HETATM    1  O1  UNL     1     -38.588  15.465  49.179  1.00  0.00     0.000 OA
HETATM    2  O2  UNL     1     -38.253  15.833  50.519  1.00  0.00     0.000 OA
HETATM    3  N1  UNL     1     -40.757  15.286  49.007  1.00  0.00     0.000 N 
HETATM    4  N2  UNL     1     -37.220  15.647  49.550  1.00  0.00     0.000 N 
HETATM    5  C1  UNL     1     -39.388  15.467  49.378  1.00  0.00     0.000 A 
HETATM    6  C2  UNL     1     -39.956  15.285  48.808  1.00  0.00     0.000 A 
HETATM    7  C3  UNL     1     -40.989  15.471  49.777  1.00  0.00     0.000 A 
HETATM    8  C4  UNL     1     -39.622  15.652  50.148  1.00  0.00     0.000 A 
HETATM    9  C5  UNL     1     -40.422  15.653  50.347  1.00  0.00     0.000 A 
HETATM   10  C6  UNL     1     -41.324  15.104  48.437  1.00  0.00     0.000 A 
HETATM   11  C7  UNL     1     -38.021  15.648  49.749  1.00  0.00     0.000 A 
HETATM   12  C8  UNL     1     -36.653  15.829  50.121  1.00  0.00     0.000 A 
HETATM   13  C9  UNL     1     -36.987  15.462  48.780  1.00  0.00     0.000 A 
ENDROOT
TORSDOF 10
ENDMDL
