MODEL 1
REMARK VINA RESULT:     570.0      0.000      0.000
REMARK WARNING: 32 MAX_TORS EXCEEDED!!!
REMARK  33 active torsions:
REMARK  status: ('A' for Active; 'I' for Inactive)
REMARK    1  A    between atoms: CL1_1  and  C11_17 
REMARK    2  A    between atoms: N1_2  and  N4_5 
REMARK    3  A    between atoms: N1_2  and  N5_6 
REMARK    4  A    between atoms: N1_2  and  C5_11 
REMARK    5  A    between atoms: N1_2  and  C6_12 
REMARK    6  A    between atoms: N3_4  and  C4_10 
REMARK    7  A    between atoms: N4_5  and  C5_11 
REMARK    8  A    between atoms: N4_5  and  C14_20 
REMARK    9  A    between atoms: N5_6  and  C6_12 
REMARK   10  A    between atoms: C1_7  and  C7_13 
REMARK   11  A    between atoms: C2_8  and  C3_9 
REMARK   12  A    between atoms: C2_8  and  C8_14 
REMARK   13  A    between atoms: C2_8  and  C14_20 
REMARK   14  A    between atoms: C4_10  and  C7_13 
REMARK   15  A    between atoms: C4_10  and  C8_14 
REMARK   16  A    between atoms: C4_10  and  C10_16 
REMARK   17  A    between atoms: C4_10  and  C12_18 
REMARK   18  A    between atoms: C4_10  and  C15_21 
REMARK   19  A    between atoms: C5_11  and  C8_14 
REMARK   20  A    between atoms: C7_13  and  C9_15 
REMARK   21  A    between atoms: C8_14  and  C12_18 
REMARK   22  A    between atoms: C9_15  and  C10_16 
REMARK   23  A    between atoms: C9_15  and  C11_17 
REMARK   24  A    between atoms: C9_15  and  C15_21 
REMARK   25  A    between atoms: C10_16  and  C19_25 
REMARK   26  A    between atoms: C11_17  and  C12_18 
REMARK   27  A    between atoms: C13_19  and  C14_20 
REMARK   28  A    between atoms: C15_21  and  C16_22 
REMARK   29  A    between atoms: C15_21  and  C18_24 
REMARK   30  A    between atoms: C16_22  and  C17_23 
REMARK   31  A    between atoms: C16_22  and  C19_25 
REMARK   32  A    between atoms: C17_23  and  C18_24 
REMARK   33  A    between atoms: C18_24  and  C19_25 
ROOT
HETATM    1 CL1  UNL     1     -40.418  14.271  49.808  1.00  0.00    -0.251 Cl
HETATM    2  N1  UNL     1     -37.589  12.991  48.549  1.00  0.00     0.000 N 
HETATM    3  N2  UNL     1     -36.421  14.813  48.140  1.00  0.00    -0.006 N 
HETATM    4  N3  UNL     1     -38.438  11.366  48.832  1.00  0.00     0.000 N 
HETATM    5  N4  UNL     1     -36.369  13.097  48.038  1.00  0.00     0.000 N 
HETATM    6  N5  UNL     1     -36.556  12.300  48.079  1.00  0.00     0.000 N 
HETATM    7  C1  UNL     1     -38.316  13.216  48.868  1.00  0.00     0.046 A 
HETATM    8  C2  UNL     1     -37.007  13.523  48.328  1.00  0.00     0.177 A 
HETATM    9  C3  UNL     1     -37.309  12.231  48.395  1.00  0.00     0.031 A 
HETATM   10  C4  UNL     1     -38.943  12.736  49.110  1.00  0.00     0.026 A 
HETATM   11  C5  UNL     1     -37.054  14.345  48.386  1.00  0.00     0.221 A 
HETATM   12  C6  UNL     1     -37.687  11.507  48.520  1.00  0.00     0.003 A 
HETATM   13  C7  UNL     1     -38.997  11.913  49.095  1.00  0.00     0.014 A 
HETATM   14  C8  UNL     1     -38.366  14.071  48.929  1.00  0.00     0.073 A 
HETATM   15  C9  UNL     1     -39.662  13.080  49.431  1.00  0.00     0.034 A 
HETATM   16  C10 UNL     1     -39.703  11.595  49.378  1.00  0.00     0.010 A 
HETATM   17  C11 UNL     1     -39.078  14.432  49.248  1.00  0.00     0.057 A 
HETATM   18  C12 UNL     1     -39.731  13.934  49.501  1.00  0.00     0.055 A 
HETATM   19  C13 UNL     1     -36.468  15.635  48.199  1.00  0.00     0.247 A 
HETATM   20  C14 UNL     1     -35.741  14.459  47.836  1.00  0.00     0.242 A 
HETATM   21  C15 UNL     1     -40.299  12.094  49.654  1.00  0.00     0.010 A 
HETATM   22  C16 UNL     1     -39.813  10.777  49.387  1.00  0.00     0.003 A 
HETATM   23  C17 UNL     1     -41.005  11.776  49.938  1.00  0.00     0.002 A 
HETATM   24  C18 UNL     1     -40.519  10.459  49.671  1.00  0.00     0.002 A 
HETATM   25  C19 UNL     1     -41.115  10.958  49.946  1.00  0.00     0.002 A 
ENDROOT
TORSDOF 33
ENDMDL
MODEL 2
REMARK VINA RESULT:     572.6      1.613      4.273
REMARK WARNING: 32 MAX_TORS EXCEEDED!!!
REMARK  33 active torsions:
REMARK  status: ('A' for Active; 'I' for Inactive)
REMARK    1  A    between atoms: CL1_1  and  C11_17 
REMARK    2  A    between atoms: N1_2  and  N4_5 
REMARK    3  A    between atoms: N1_2  and  N5_6 
REMARK    4  A    between atoms: N1_2  and  C5_11 
REMARK    5  A    between atoms: N1_2  and  C6_12 
REMARK    6  A    between atoms: N3_4  and  C4_10 
REMARK    7  A    between atoms: N4_5  and  C5_11 
REMARK    8  A    between atoms: N4_5  and  C14_20 
REMARK    9  A    between atoms: N5_6  and  C6_12 
REMARK   10  A    between atoms: C1_7  and  C7_13 
REMARK   11  A    between atoms: C2_8  and  C3_9 
REMARK   12  A    between atoms: C2_8  and  C8_14 
REMARK   13  A    between atoms: C2_8  and  C14_20 
REMARK   14  A    between atoms: C4_10  and  C7_13 
REMARK   15  A    between atoms: C4_10  and  C8_14 
REMARK   16  A    between atoms: C4_10  and  C10_16 
REMARK   17  A    between atoms: C4_10  and  C12_18 
REMARK   18  A    between atoms: C4_10  and  C15_21 
REMARK   19  A    between atoms: C5_11  and  C8_14 
REMARK   20  A    between atoms: C7_13  and  C9_15 
REMARK   21  A    between atoms: C8_14  and  C12_18 
REMARK   22  A    between atoms: C9_15  and  C10_16 
REMARK   23  A    between atoms: C9_15  and  C11_17 
REMARK   24  A    between atoms: C9_15  and  C15_21 
REMARK   25  A    between atoms: C10_16  and  C19_25 
REMARK   26  A    between atoms: C11_17  and  C12_18 
REMARK   27  A    between atoms: C13_19  and  C14_20 
REMARK   28  A    between atoms: C15_21  and  C16_22 
REMARK   29  A    between atoms: C15_21  and  C18_24 
REMARK   30  A    between atoms: C16_22  and  C17_23 
REMARK   31  A    between atoms: C16_22  and  C19_25 
REMARK   32  A    between atoms: C17_23  and  C18_24 
REMARK   33  A    between atoms: C18_24  and  C19_25 
ROOT
HETATM    1 CL1  UNL     1     -35.567  13.264  50.269  1.00  0.00    -0.251 Cl
HETATM    2  N1  UNL     1     -38.436  12.570  48.687  1.00  0.00     0.000 N 
HETATM    3  N2  UNL     1     -39.078  10.733  49.719  1.00  0.00    -0.006 N 
HETATM    4  N3  UNL     1     -38.040  14.103  47.721  1.00  0.00     0.000 N 
HETATM    5  N4  UNL     1     -39.522  11.835  48.477  1.00  0.00     0.000 N 
HETATM    6  N5  UNL     1     -39.537  12.463  47.949  1.00  0.00     0.000 N 
HETATM    7  C1  UNL     1     -37.723  12.817  49.019  1.00  0.00     0.046 A 
HETATM    8  C2  UNL     1     -38.843  11.902  48.932  1.00  0.00     0.177 A 
HETATM    9  C3  UNL     1     -38.867  12.918  48.076  1.00  0.00     0.031 A 
HETATM   10  C4  UNL     1     -37.264  13.474  48.822  1.00  0.00     0.026 A 
HETATM   11  C5  UNL     1     -38.610  11.386  49.532  1.00  0.00     0.221 A 
HETATM   12  C6  UNL     1     -38.691  13.601  47.646  1.00  0.00     0.003 A 
HETATM   13  C7  UNL     1     -37.405  14.046  48.245  1.00  0.00     0.014 A 
HETATM   14  C8  UNL     1     -37.479  12.280  49.644  1.00  0.00     0.073 A 
HETATM   15  C9  UNL     1     -36.530  13.639  49.237  1.00  0.00     0.034 A 
HETATM   16  C10 UNL     1     -36.836  14.640  48.183  1.00  0.00     0.010 A 
HETATM   17  C11 UNL     1     -36.748  12.429  50.070  1.00  0.00     0.057 A 
HETATM   18  C12 UNL     1     -36.270  13.114  49.866  1.00  0.00     0.055 A 
HETATM   19  C13 UNL     1     -38.845  10.216  50.319  1.00  0.00     0.247 A 
HETATM   20  C14 UNL     1     -39.779  10.595  49.306  1.00  0.00     0.242 A 
HETATM   21  C15 UNL     1     -36.178  14.635  48.680  1.00  0.00     0.010 A 
HETATM   22  C16 UNL     1     -36.924  15.239  47.622  1.00  0.00     0.003 A 
HETATM   23  C17 UNL     1     -35.609  15.229  48.618  1.00  0.00     0.002 A 
HETATM   24  C18 UNL     1     -36.356  15.833  47.560  1.00  0.00     0.002 A 
HETATM   25  C19 UNL     1     -35.698  15.829  48.057  1.00  0.00     0.002 A 
ENDROOT
TORSDOF 33
ENDMDL
