MODEL 1
REMARK VINA RESULT:     484.1      0.000      0.000
REMARK WARNING: 32 MAX_TORS EXCEEDED!!!
REMARK  48 active torsions:
REMARK  status: ('A' for Active; 'I' for Inactive)
REMARK    1  A    between atoms: F1_1  and  C7_12 
REMARK    2  A    between atoms: F1_1  and  C17_22 
REMARK    3  A    between atoms: F1_1  and  C18_23 
REMARK    4  A    between atoms: O1_2  and  C7_12 
REMARK    5  A    between atoms: O1_2  and  C17_22 
REMARK    6  A    between atoms: O1_2  and  C18_23 
REMARK    7  A    between atoms: O2_3  and  C12_17 
REMARK    8  A    between atoms: O2_3  and  C20_25 
REMARK    9  A    between atoms: O4_5  and  C21_26 
REMARK   10  A    between atoms: C1_6  and  C4_9 
REMARK   11  A    between atoms: C1_6  and  C9_14 
REMARK   12  A    between atoms: C1_6  and  C15_20 
REMARK   13  A    between atoms: C2_7  and  C4_9 
REMARK   14  A    between atoms: C2_7  and  C8_13 
REMARK   15  A    between atoms: C2_7  and  C9_14 
REMARK   16  A    between atoms: C3_8  and  C4_9 
REMARK   17  A    between atoms: C3_8  and  C6_11 
REMARK   18  A    between atoms: C3_8  and  C7_12 
REMARK   19  A    between atoms: C3_8  and  C9_14 
REMARK   20  A    between atoms: C3_8  and  C10_15 
REMARK   21  A    between atoms: C4_9  and  C7_12 
REMARK   22  A    between atoms: C4_9  and  C11_16 
REMARK   23  A    between atoms: C5_10  and  C6_11 
REMARK   24  A    between atoms: C5_10  and  C7_12 
REMARK   25  A    between atoms: C5_10  and  C12_17 
REMARK   26  A    between atoms: C5_10  and  C20_25 
REMARK   27  A    between atoms: C6_11  and  C8_13 
REMARK   28  A    between atoms: C6_11  and  C16_21 
REMARK   29  A    between atoms: C7_12  and  C9_14 
REMARK   30  A    between atoms: C7_12  and  C12_17 
REMARK   31  A    between atoms: C8_13  and  C15_20 
REMARK   32  A    between atoms: C9_14  and  C10_15 
REMARK   33  A    between atoms: C9_14  and  C12_17 
REMARK   34  A    between atoms: C9_14  and  C17_22 
REMARK   35  A    between atoms: C10_15  and  C13_18 
REMARK   36  A    between atoms: C11_16  and  C14_19 
REMARK   37  A    between atoms: C12_17  and  C15_20 
REMARK   38  A    between atoms: C13_18  and  C14_19 
REMARK   39  A    between atoms: C13_18  and  C19_24 
REMARK   40  A    between atoms: C14_19  and  C17_22 
REMARK   41  A    between atoms: C14_19  and  C18_23 
REMARK   42  A    between atoms: C14_19  and  C22_27 
REMARK   43  A    between atoms: C16_21  and  C20_25 
REMARK   44  A    between atoms: C17_22  and  C18_23 
REMARK   45  A    between atoms: C17_22  and  C21_26 
REMARK   46  A    between atoms: C18_23  and  C22_27 
REMARK   47  A    between atoms: C19_24  and  C21_26 
REMARK   48  A    between atoms: C21_26  and  C22_27 
ROOT
HETATM    1  F1  UNL     1     -38.425  13.899  49.758  1.00  0.00    -0.622 F 
HETATM    2  O1  UNL     1     -37.888  14.193  49.920  1.00  0.00     0.000 OA
HETATM    3  O4  UNL     1     -41.272  15.759  49.958  1.00  0.00     0.000 OA
HETATM    4  C4  UNL     1     -38.902  13.277  49.500  1.00  0.00     0.029 A 
HETATM    5  C9  UNL     1     -38.109  13.443  49.657  1.00  0.00     0.031 A 
HETATM    6  C10 UNL     1     -39.488  13.894  49.614  1.00  0.00     0.026 A 
HETATM    7  C14 UNL     1     -40.315  13.728  49.453  1.00  0.00     0.049 A 
HETATM    8  C17 UNL     1     -38.809  14.309  49.834  1.00  0.00     0.042 A 
HETATM    9  C18 UNL     1     -39.229  14.702  49.901  1.00  0.00     0.035 A 
HETATM   10  C19 UNL     1     -40.942  14.359  49.566  1.00  0.00     0.031 A 
HETATM   11  C21 UNL     1     -39.840  15.345  50.020  1.00  0.00     0.051 A 
HETATM   12  C22 UNL     1     -40.702  15.172  49.851  1.00  0.00     0.033 A 
ENDROOT
BRANCH   1  13
HETATM   13  C7  UNL     1     -37.536  12.858  49.551  1.00  0.00     0.026 A 
HETATM   14  C1  UNL     1     -37.641  12.267  48.985  1.00  0.00     0.053 A 
HETATM   15  C2  UNL     1     -38.308  12.274  48.500  1.00  0.00     0.045 A 
HETATM   16  C5  UNL     1     -37.187  11.615  48.780  1.00  0.00     0.057 A 
HETATM   17  C12 UNL     1     -36.974  12.260  49.471  1.00  0.00     0.059 C 
HETATM   18  C3  UNL     1     -38.870  12.872  48.580  1.00  0.00     0.046 A 
HETATM   19  C6  UNL     1     -38.261  11.626  47.999  1.00  0.00     0.029 A 
HETATM   20  C8  UNL     1     -37.570  11.220  48.172  1.00  0.00     0.038 A 
HETATM   21  C11 UNL     1     -39.560  12.869  48.068  1.00  0.00     0.035 A 
HETATM   22  C13 UNL     1     -40.150  13.489  48.147  1.00  0.00     0.032 A 
HETATM   23  C15 UNL     1     -36.471  11.395  49.126  1.00  0.00     0.090 A 
HETATM   24  O2  UNL     1     -36.152  11.848  49.737  1.00  0.00     0.000 OA
HETATM   25  C16 UNL     1     -37.305  10.533  47.798  1.00  0.00     0.035 A 
HETATM   26  C20 UNL     1     -36.075  10.721  48.861  1.00  0.00     0.115 A 
HETATM   27  O3  UNL     1     -35.359  10.501  49.206  1.00  0.00    -0.363 OA
ENDBRANCH   1  13
TORSDOF 48
ENDMDL
