MODEL 1
REMARK VINA RESULT:     187.8      0.000      0.000
REMARK  2 active torsions:
REMARK  status: ('A' for Active; 'I' for Inactive)
REMARK    1  A    between atoms: C4_8  and  C8_12 
REMARK    2  A    between atoms: C5_9  and  C9_13 
ROOT
HETATM    1  O1  UNL     1     -41.271  15.528  48.990  1.00  0.00    -0.310 OA
HETATM    2  O2  UNL     1     -36.351  10.392  49.664  1.00  0.00    -0.310 OA
HETATM    3  O3  UNL     1     -40.253  15.640  49.987  1.00  0.00    -0.310 OA
HETATM    4  O4  UNL     1     -36.317  11.531  50.526  1.00  0.00    -0.310 OA
HETATM    5  C1  UNL     1     -38.636  13.169  49.637  1.00  0.00     0.028 A 
HETATM    6  C2  UNL     1     -39.303  13.474  49.260  1.00  0.00     0.062 A 
HETATM    7  C3  UNL     1     -38.319  12.446  49.394  1.00  0.00     0.062 A 
HETATM    8  C4  UNL     1     -39.619  14.196  49.502  1.00  0.00     0.104 A 
HETATM    9  C5  UNL     1     -37.652  12.142  49.772  1.00  0.00     0.104 A 
HETATM   10  C6  UNL     1     -40.287  14.501  49.125  1.00  0.00     0.201 A 
HETATM   11  C7  UNL     1     -37.335  11.419  49.529  1.00  0.00     0.201 A 
HETATM   12  C8  UNL     1     -40.603  15.223  49.368  1.00  0.00     0.239 A 
HETATM   13  C9  UNL     1     -36.668  11.114  49.907  1.00  0.00     0.239 A 
ENDROOT
TORSDOF 2
ENDMDL
