MODEL 1
REMARK VINA RESULT:     349.0      0.000      0.000
REMARK WARNING: 32 MAX_TORS EXCEEDED!!!
REMARK  41 active torsions:
REMARK  status: ('A' for Active; 'I' for Inactive)
REMARK    1  A    between atoms: O1_1  and  C11_17 
REMARK    2  A    between atoms: O1_1  and  C20_26 
REMARK    3  A    between atoms: O2_2  and  C10_16 
REMARK    4  A    between atoms: O3_3  and  C18_24 
REMARK    5  A    between atoms: O4_4  and  C17_23 
REMARK    6  A    between atoms: N1_5  and  C1_7 
REMARK    7  A    between atoms: N2_6  and  C4_10 
REMARK    8  A    between atoms: C1_7  and  C5_11 
REMARK    9  A    between atoms: C1_7  and  C12_18 
REMARK   10  A    between atoms: C2_8  and  C5_11 
REMARK   11  A    between atoms: C2_8  and  C7_13 
REMARK   12  A    between atoms: C2_8  and  C10_16 
REMARK   13  A    between atoms: C3_9  and  C5_11 
REMARK   14  A    between atoms: C3_9  and  C6_12 
REMARK   15  A    between atoms: C3_9  and  C12_18 
REMARK   16  A    between atoms: C4_10  and  C7_13 
REMARK   17  A    between atoms: C4_10  and  C6_12 
REMARK   18  A    between atoms: C4_10  and  C11_17 
REMARK   19  A    between atoms: C4_10  and  C13_19 
REMARK   20  A    between atoms: C4_10  and  C15_21 
REMARK   21  A    between atoms: C5_11  and  C9_15 
REMARK   22  A    between atoms: C6_12  and  C11_17 
REMARK   23  A    between atoms: C6_12  and  C19_25 
REMARK   24  A    between atoms: C7_13  and  C8_14 
REMARK   25  A    between atoms: C8_14  and  C10_16 
REMARK   26  A    between atoms: C8_14  and  C13_19 
REMARK   27  A    between atoms: C8_14  and  C15_21 
REMARK   28  A    between atoms: C9_15  and  C12_18 
REMARK   29  A    between atoms: C10_16  and  C11_17 
REMARK   30  A    between atoms: C10_16  and  C20_26 
REMARK   31  A    between atoms: C13_19  and  C16_22 
REMARK   32  A    between atoms: C13_19  and  C18_24 
REMARK   33  A    between atoms: C14_20  and  C15_21 
REMARK   34  A    between atoms: C14_20  and  C17_23 
REMARK   35  A    between atoms: C14_20  and  C18_24 
REMARK   36  A    between atoms: C14_20  and  C21_27 
REMARK   37  A    between atoms: C15_21  and  C16_22 
REMARK   38  A    between atoms: C15_21  and  C18_24 
REMARK   39  A    between atoms: C16_22  and  C17_23 
REMARK   40  A    between atoms: C17_23  and  C18_24 
REMARK   41  A    between atoms: C17_23  and  C22_28 
ROOT
HETATM    1  O1  UNL     1     -37.191  15.650  48.452  1.00  0.00     0.000 OA
HETATM    2  O2  UNL     1     -36.687  15.818  50.056  1.00  0.00     0.000 OA
HETATM    3  C1  UNL     1     -39.914  15.431  49.242  1.00  0.00     0.000 A 
HETATM    4  C2  UNL     1     -39.148  15.530  49.533  1.00  0.00     0.000 A 
HETATM    5  C3  UNL     1     -39.979  15.365  48.422  1.00  0.00     0.000 A 
HETATM    6  C4  UNL     1     -38.903  15.612  50.317  1.00  0.00     0.000 A 
HETATM    7  C6  UNL     1     -38.579  15.541  48.890  1.00  0.00     0.000 A 
HETATM    8  C8  UNL     1     -38.071  15.711  50.510  1.00  0.00     0.000 A 
HETATM    9  C9  UNL     1     -40.720  15.264  48.074  1.00  0.00     0.000 A 
HETATM   10  C10 UNL     1     -37.744  15.638  49.063  1.00  0.00     0.000 A 
HETATM   11  C11 UNL     1     -37.488  15.724  49.880  1.00  0.00     0.000 A 
HETATM   12  C19 UNL     1     -37.438  15.567  47.669  1.00  0.00     0.000 A 
HETATM   13  C20 UNL     1     -36.130  15.830  49.449  1.00  0.00     0.000 A 
ENDROOT
BRANCH   4  14
HETATM   14  C5  UNL     1     -40.623  15.390  49.662  1.00  0.00     0.000 A 
HETATM   15  N1  UNL     1     -40.719  14.584  49.812  1.00  0.00     0.000 N 
HETATM   16  N2  UNL     1     -40.139  14.001  49.876  1.00  0.00     0.000 N 
HETATM   17  C7  UNL     1     -39.320  14.078  49.805  1.00  0.00     0.000 A 
HETATM   18  C12 UNL     1     -41.318  15.833  49.631  1.00  0.00     0.000 A 
HETATM   19  C13 UNL     1     -38.885  13.384  49.899  1.00  0.00     0.000 A 
HETATM   20  C14 UNL     1     -39.273  12.672  50.053  1.00  0.00     0.000 A 
HETATM   21  C15 UNL     1     -38.063  13.401  49.838  1.00  0.00     0.000 A 
HETATM   22  C17 UNL     1     -37.628  12.706  49.932  1.00  0.00     0.000 A 
HETATM   23  C16 UNL     1     -38.838  11.977  50.147  1.00  0.00     0.000 A 
HETATM   24  O3  UNL     1     -39.225  11.265  50.301  1.00  0.00     0.000 OA
HETATM   25  C18 UNL     1     -38.015  11.994  50.086  1.00  0.00     0.000 A 
HETATM   26  O4  UNL     1     -37.580  11.300  50.180  1.00  0.00     0.000 OA
HETATM   27  C21 UNL     1     -40.048  11.248  50.362  1.00  0.00     0.000 A 
HETATM   28  C22 UNL     1     -36.758  11.317  50.119  1.00  0.00     0.000 A 
ENDBRANCH   4  14
TORSDOF 41
ENDMDL
