MODEL 1
REMARK VINA RESULT:      45.7      0.000      0.000
REMARK  9 active torsions:
REMARK  status: ('A' for Active; 'I' for Inactive)
REMARK    1  A    between atoms: O1_2  and  C4_8 
REMARK    2  A    between atoms: N1_3  and  N2_4 
REMARK    3  A    between atoms: N2_4  and  C4_8 
REMARK    4  A    between atoms: C1_5  and  C4_8 
REMARK    5  A    between atoms: C2_6  and  C7_11 
REMARK    6  A    between atoms: C3_7  and  C4_8 
REMARK    7  A    between atoms: C4_8  and  C7_11 
REMARK    8  A    between atoms: C4_8  and  C6_10 
REMARK    9  A    between atoms: C6_10  and  C7_11 
ROOT
HETATM    1  S1  UNL     1     -37.040  15.687  50.525  1.00  0.00    -0.084 SA
HETATM    2  O1  UNL     1     -38.471  15.827  48.055  1.00  0.00     0.000 OA
HETATM    3  N1  UNL     1     -38.469  15.685  50.526  1.00  0.00     0.000 N 
HETATM    4  N2  UNL     1     -37.756  15.757  49.289  1.00  0.00     0.000 N 
HETATM    5  C1  UNL     1     -39.898  15.682  50.526  1.00  0.00     0.020 A 
HETATM    6  C2  UNL     1     -39.184  15.707  50.114  1.00  0.00     0.017 A 
HETATM    7  C3  UNL     1     -40.612  15.704  50.115  1.00  0.00     0.020 A 
HETATM    8  C4  UNL     1     -39.185  15.754  49.290  1.00  0.00     0.017 A 
HETATM    9  C5  UNL     1     -41.327  15.679  50.527  1.00  0.00    -0.053 A 
HETATM   10  C6  UNL     1     -37.755  15.710  50.113  1.00  0.00     0.050 A 
HETATM   11  C7  UNL     1     -38.470  15.779  48.878  1.00  0.00     0.013 A 
ENDROOT
TORSDOF 9
ENDMDL
