MODEL 1
REMARK VINA RESULT:     409.4      0.000      0.000
REMARK WARNING: 32 MAX_TORS EXCEEDED!!!
REMARK  45 active torsions:
REMARK  status: ('A' for Active; 'I' for Inactive)
REMARK    1  A    between atoms: O1_1  and  C6_10 
REMARK    2  A    between atoms: O1_1  and  C12_16 
REMARK    3  A    between atoms: O1_1  and  C21_25 
REMARK    4  A    between atoms: O2_2  and  C15_19 
REMARK    5  A    between atoms: N1_3  and  C2_6 
REMARK    6  A    between atoms: N2_4  and  C17_21 
REMARK    7  A    between atoms: N2_4  and  C18_22 
REMARK    8  A    between atoms: C1_5  and  C8_12 
REMARK    9  A    between atoms: C1_5  and  C11_15 
REMARK   10  A    between atoms: C3_7  and  C4_8 
REMARK   11  A    between atoms: C4_8  and  C7_11 
REMARK   12  A    between atoms: C4_8  and  C11_15 
REMARK   13  A    between atoms: C4_8  and  C14_18 
REMARK   14  A    between atoms: C4_8  and  C20_24 
REMARK   15  A    between atoms: C5_9  and  C6_10 
REMARK   16  A    between atoms: C5_9  and  C7_11 
REMARK   17  A    between atoms: C5_9  and  C9_13 
REMARK   18  A    between atoms: C5_9  and  C12_16 
REMARK   19  A    between atoms: C6_10  and  C7_11 
REMARK   20  A    between atoms: C6_10  and  C13_17 
REMARK   21  A    between atoms: C6_10  and  C23_27 
REMARK   22  A    between atoms: C7_11  and  C10_14 
REMARK   23  A    between atoms: C7_11  and  C24_28 
REMARK   24  A    between atoms: C8_12  and  C11_15 
REMARK   25  A    between atoms: C10_14  and  C12_16 
REMARK   26  A    between atoms: C10_14  and  C13_17 
REMARK   27  A    between atoms: C10_14  and  C21_25 
REMARK   28  A    between atoms: C10_14  and  C22_26 
REMARK   29  A    between atoms: C11_15  and  C13_17 
REMARK   30  A    between atoms: C11_15  and  C22_26 
REMARK   31  A    between atoms: C12_16  and  C19_23 
REMARK   32  A    between atoms: C12_16  and  C23_27 
REMARK   33  A    between atoms: C13_17  and  C19_23 
REMARK   34  A    between atoms: C13_17  and  C20_24 
REMARK   35  A    between atoms: C13_17  and  C24_28 
REMARK   36  A    between atoms: C14_18  and  C15_19 
REMARK   37  A    between atoms: C14_18  and  C18_22 
REMARK   38  A    between atoms: C14_18  and  C20_24 
REMARK   39  A    between atoms: C15_19  and  C18_22 
REMARK   40  A    between atoms: C15_19  and  C17_21 
REMARK   41  A    between atoms: C19_23  and  C21_25 
REMARK   42  A    between atoms: C19_23  and  C22_26 
REMARK   43  A    between atoms: C20_24  and  C22_26 
REMARK   44  A    between atoms: C21_25  and  C23_27 
REMARK   45  A    between atoms: C22_26  and  C24_28 
ROOT
HETATM    1  O1  UNL     1     -35.844  13.913  50.500  1.00  0.00     0.000 OA
HETATM    2  O2  UNL     1     -41.323  11.792  50.516  1.00  0.00     0.000 OA
HETATM    3  N1  UNL     1     -36.389  12.547  50.509  1.00  0.00     0.000 N 
HETATM    4  N2  UNL     1     -39.680  11.942  50.514  1.00  0.00     0.000 N 
HETATM    5  C1  UNL     1     -37.692  12.842  50.508  1.00  0.00     0.001 A 
HETATM    6  C2  UNL     1     -37.270  13.551  50.503  1.00  0.00     0.001 A 
HETATM    7  C3  UNL     1     -37.147  12.221  50.511  1.00  0.00     0.004 A 
HETATM    8  C4  UNL     1     -38.513  12.767  50.508  1.00  0.00     0.000 A 
HETATM    9  C5  UNL     1     -36.465  13.369  50.503  1.00  0.00     0.003 A 
HETATM   10  C6  UNL     1     -36.950  14.311  50.498  1.00  0.00     0.000 A 
HETATM   11  C7  UNL     1     -37.978  13.973  50.500  1.00  0.00     0.000 A 
HETATM   12  C8  UNL     1     -38.858  12.018  50.513  1.00  0.00     0.000 A 
HETATM   13  C9  UNL     1     -35.680  12.125  50.511  1.00  0.00     0.022 A 
HETATM   14  C10 UNL     1     -37.449  14.968  50.494  1.00  0.00     0.000 A 
HETATM   15  C11 UNL     1     -38.698  13.569  50.503  1.00  0.00     0.000 A 
HETATM   16  C12 UNL     1     -36.131  14.415  50.497  1.00  0.00     0.000 A 
HETATM   17  C13 UNL     1     -37.967  14.798  50.495  1.00  0.00     0.000 A 
HETATM   18  C14 UNL     1     -40.156  12.616  50.510  1.00  0.00     0.000 A 
HETATM   19  C15 UNL     1     -40.026  11.193  50.519  1.00  0.00     0.000 A 
HETATM   20  C16 UNL     1     -35.692  11.300  50.516  1.00  0.00    -0.031 A 
HETATM   21  C17 UNL     1     -40.977  12.540  50.511  1.00  0.00     0.000 A 
HETATM   22  C18 UNL     1     -40.847  11.117  50.520  1.00  0.00     0.000 A 
HETATM   23  C19 UNL     1     -37.130  15.729  50.489  1.00  0.00     0.000 A 
HETATM   24  C20 UNL     1     -39.407  13.991  50.501  1.00  0.00     0.000 A 
HETATM   25  C21 UNL     1     -35.812  15.176  50.491  1.00  0.00     0.000 A 
HETATM   26  C22 UNL     1     -38.676  15.220  50.493  1.00  0.00     0.000 A 
HETATM   27  C23 UNL     1     -36.311  15.833  50.487  1.00  0.00     0.000 A 
HETATM   28  C24 UNL     1     -39.396  14.817  50.496  1.00  0.00     0.000 A 
ENDROOT
TORSDOF 45
ENDMDL
