MODEL 1
REMARK VINA RESULT:     262.5      0.000      0.000
REMARK  28 active torsions:
REMARK  status: ('A' for Active; 'I' for Inactive)
REMARK    1  A    between atoms: O1_1  and  C1_4 
REMARK    2  A    between atoms: O1_1  and  C7_10 
REMARK    3  A    between atoms: N1_2  and  N2_3 
REMARK    4  A    between atoms: N2_3  and  C2_5 
REMARK    5  A    between atoms: N2_3  and  C8_11 
REMARK    6  A    between atoms: C1_4  and  C11_14 
REMARK    7  A    between atoms: C1_4  and  C14_17 
REMARK    8  A    between atoms: C2_5  and  C11_14 
REMARK    9  A    between atoms: C2_5  and  C15_18 
REMARK   10  A    between atoms: C3_6  and  C6_9 
REMARK   11  A    between atoms: C3_6  and  C7_10 
REMARK   12  A    between atoms: C3_6  and  C12_15 
REMARK   13  A    between atoms: C4_7  and  C5_8 
REMARK   14  A    between atoms: C4_7  and  C8_11 
REMARK   15  A    between atoms: C4_7  and  C13_16 
REMARK   16  A    between atoms: C5_8  and  C6_9 
REMARK   17  A    between atoms: C5_8  and  C9_12 
REMARK   18  A    between atoms: C6_9  and  C10_13 
REMARK   19  A    between atoms: C7_10  and  C9_12 
REMARK   20  A    between atoms: C7_10  and  C11_14 
REMARK   21  A    between atoms: C7_10  and  C14_17 
REMARK   22  A    between atoms: C8_11  and  C10_13 
REMARK   23  A    between atoms: C8_11  and  C11_14 
REMARK   24  A    between atoms: C8_11  and  C15_18 
REMARK   25  A    between atoms: C9_12  and  C12_15 
REMARK   26  A    between atoms: C10_13  and  C13_16 
REMARK   27  A    between atoms: C12_15  and  C14_17 
REMARK   28  A    between atoms: C13_16  and  C15_18 
ROOT
HETATM    1  O1  UNL     1     -41.090  13.528  48.075  1.00  0.00     0.000 OA
HETATM    2  N1  UNL     1     -40.160  13.003  48.936  1.00  0.00     0.000 N 
HETATM    3  N2  UNL     1     -40.721  12.211  47.966  1.00  0.00     0.000 N 
HETATM    4  C1  UNL     1     -40.136  13.726  49.257  1.00  0.00     0.000 A 
HETATM    5  C2  UNL     1     -39.752  12.356  49.144  1.00  0.00     0.000 A 
HETATM    6  C3  UNL     1     -39.699  13.982  49.866  1.00  0.00     0.000 A 
HETATM    7  C4  UNL     1     -39.221  12.274  49.725  1.00  0.00     0.000 A 
HETATM    8  C5  UNL     1     -39.178  13.578  50.304  1.00  0.00     0.000 A 
HETATM    9  C6  UNL     1     -38.965  12.817  50.241  1.00  0.00     0.000 A 
HETATM   10  C7  UNL     1     -40.655  14.234  48.865  1.00  0.00     0.000 A 
HETATM   11  C8  UNL     1     -39.950  11.720  48.657  1.00  0.00     0.000 A 
HETATM   12  C9  UNL     1     -39.750  14.764  50.125  1.00  0.00     0.000 A 
HETATM   13  C10 UNL     1     -38.850  11.549  49.860  1.00  0.00     0.000 A 
HETATM   14  C11 UNL     1     -40.657  12.914  48.326  1.00  0.00     0.000 A 
HETATM   15  C12 UNL     1     -40.719  15.020  49.110  1.00  0.00     0.000 A 
HETATM   16  C13 UNL     1     -39.589  10.988  48.777  1.00  0.00     0.000 A 
HETATM   17  C14 UNL     1     -40.263  15.286  49.744  1.00  0.00     0.000 A 
HETATM   18  C15 UNL     1     -39.035  10.902  49.383  1.00  0.00     0.000 A 
ENDROOT
TORSDOF 28
ENDMDL
