MODEL 1
REMARK VINA RESULT:     362.6      0.000      0.000
REMARK  29 active torsions:
REMARK  status: ('A' for Active; 'I' for Inactive)
REMARK    1  A    between atoms: S1_1  and  C2_10 
REMARK    2  A    between atoms: S1_1  and  C3_11 
REMARK    3  A    between atoms: S1_1  and  C4_12 
REMARK    4  A    between atoms: S1_1  and  C6_14 
REMARK    5  A    between atoms: O2_3  and  C10_18 
REMARK    6  A    between atoms: O2_3  and  C12_20 
REMARK    7  A    between atoms: O3_4  and  C8_16 
REMARK    8  A    between atoms: N1_6  and  C3_11 
REMARK    9  A    between atoms: N1_6  and  C2_10 
REMARK   10  A    between atoms: N1_6  and  C9_17 
REMARK   11  A    between atoms: N2_7  and  C3_11 
REMARK   12  A    between atoms: N2_7  and  C10_18 
REMARK   13  A    between atoms: C1_9  and  C3_11 
REMARK   14  A    between atoms: C1_9  and  C6_14 
REMARK   15  A    between atoms: C3_11  and  C4_12 
REMARK   16  A    between atoms: C4_12  and  C5_13 
REMARK   17  A    between atoms: C5_13  and  C6_14 
REMARK   18  A    between atoms: C5_13  and  C8_16 
REMARK   19  A    between atoms: C6_14  and  C9_17 
REMARK   20  A    between atoms: C7_15  and  C11_19 
REMARK   21  A    between atoms: C7_15  and  C12_20 
REMARK   22  A    between atoms: C8_16  and  C9_17 
REMARK   23  A    between atoms: C11_19  and  C16_24 
REMARK   24  A    between atoms: C12_20  and  C13_21 
REMARK   25  A    between atoms: C12_20  and  C15_23 
REMARK   26  A    between atoms: C13_21  and  C14_22 
REMARK   27  A    between atoms: C13_21  and  C16_24 
REMARK   28  A    between atoms: C14_22  and  C15_23 
REMARK   29  A    between atoms: C15_23  and  C16_24 
ROOT
HETATM    1  S1  UNL     1     -38.809  15.420  49.314  1.00  0.00    -0.160 SA
HETATM    2  O1  UNL     1     -39.166  12.676  48.863  1.00  0.00    -0.343 OA
HETATM    3  O2  UNL     1     -37.934  12.294  49.454  1.00  0.00     0.000 OA
HETATM    4  O3  UNL     1     -41.325  14.604  47.952  1.00  0.00     0.000 OA
HETATM    5  O4  UNL     1     -40.641  13.370  48.179  1.00  0.00    -0.356 OA
HETATM    6  N1  UNL     1     -39.400  14.189  48.893  1.00  0.00     0.000 N 
HETATM    7  N2  UNL     1     -37.660  13.670  49.729  1.00  0.00     0.000 N 
HETATM    8  N3  UNL     1     -36.222  13.244  50.420  1.00  0.00    -0.277 NA
HETATM    9  C1  UNL     1     -38.779  14.599  49.249  1.00  0.00     0.101 A 
HETATM   10  C2  UNL     1     -38.378  13.882  49.383  1.00  0.00     0.138 A 
HETATM   11  C3  UNL     1     -39.004  13.469  49.024  1.00  0.00     0.145 A 
HETATM   12  C4  UNL     1     -40.051  14.601  48.601  1.00  0.00     0.102 A 
HETATM   13  C5  UNL     1     -39.462  15.833  49.022  1.00  0.00     0.067 A 
HETATM   14  C6  UNL     1     -40.083  15.423  48.665  1.00  0.00     0.079 A 
HETATM   15  C7  UNL     1     -37.437  12.876  49.764  1.00  0.00     0.084 A 
HETATM   16  C8  UNL     1     -40.735  15.835  48.373  1.00  0.00     0.074 A 
HETATM   17  C9  UNL     1     -40.672  14.191  48.244  1.00  0.00     0.130 A 
HETATM   18  C10 UNL     1     -36.719  12.663  50.109  1.00  0.00     0.060 A 
HETATM   19  C11 UNL     1     -36.497  11.869  50.145  1.00  0.00     0.039 A 
HETATM   20  C12 UNL     1     -36.993  11.288  49.835  1.00  0.00     0.036 A 
HETATM   21  C13 UNL     1     -35.778  11.657  50.490  1.00  0.00     0.027 A 
HETATM   22  C14 UNL     1     -36.771  10.494  49.870  1.00  0.00     0.018 A 
HETATM   23  C15 UNL     1     -35.556  10.863  50.526  1.00  0.00     0.018 A 
HETATM   24  C16 UNL     1     -36.053  10.281  50.215  1.00  0.00     0.018 A 
ENDROOT
TORSDOF 29
ENDMDL
