MODEL 1
REMARK VINA RESULT:     224.2      0.000      0.000
REMARK  17 active torsions:
REMARK  status: ('A' for Active; 'I' for Inactive)
REMARK    1  A    between atoms: O2_2  and  C4_7 
REMARK    2  A    between atoms: C2_5  and  C4_7 
REMARK    3  A    between atoms: C2_5  and  C5_8 
REMARK    4  A    between atoms: C4_7  and  C10_13 
REMARK    5  A    between atoms: C5_8  and  C6_9 
REMARK    6  A    between atoms: C7_10  and  C12_15 
REMARK    7  A    between atoms: C8_11  and  C10_13 
REMARK    8  A    between atoms: C8_11  and  C13_16 
REMARK    9  A    between atoms: C9_12  and  C10_13 
REMARK   10  A    between atoms: C9_12  and  C11_14 
REMARK   11  A    between atoms: C9_12  and  C13_16 
REMARK   12  A    between atoms: C10_13  and  C12_15 
REMARK   13  A    between atoms: C11_14  and  C16_19 
REMARK   14  A    between atoms: C12_15  and  C13_16 
REMARK   15  A    between atoms: C12_15  and  C14_17 
REMARK   16  A    between atoms: C14_17  and  C15_18 
REMARK   17  A    between atoms: C15_18  and  C16_19 
ROOT
HETATM    1  O1  UNL     1     -38.733  13.438  50.220  1.00  0.00     0.000 OA
HETATM    2  O2  UNL     1     -38.361  11.847  50.455  1.00  0.00     0.000 OA
HETATM    3  N1  UNL     1     -36.794  11.342  50.344  1.00  0.00     0.000 N 
HETATM    4  C1  UNL     1     -37.763  12.390  50.282  1.00  0.00     0.000 A 
HETATM    5  C2  UNL     1     -36.980  12.137  50.227  1.00  0.00     0.000 A 
HETATM    6  C3  UNL     1     -36.011  11.089  50.289  1.00  0.00     0.000 A 
HETATM    7  C4  UNL     1     -37.949  13.185  50.165  1.00  0.00     0.000 A 
HETATM    8  C5  UNL     1     -35.413  11.631  50.117  1.00  0.00     0.000 A 
HETATM    9  C6  UNL     1     -35.825  10.294  50.407  1.00  0.00     0.000 A 
HETATM   10  C7  UNL     1     -38.919  14.233  50.102  1.00  0.00     0.000 A 
HETATM   11  C8  UNL     1     -39.702  14.486  50.157  1.00  0.00     0.000 A 
HETATM   12  C9  UNL     1     -39.888  15.281  50.040  1.00  0.00     0.000 A 
HETATM   13  C10 UNL     1     -38.321  14.776  49.930  1.00  0.00     0.000 A 
HETATM   14  C11 UNL     1     -40.316  13.911  50.338  1.00  0.00     0.000 A 
HETATM   15  C12 UNL     1     -39.291  15.823  49.868  1.00  0.00     0.000 A 
HETATM   16  C13 UNL     1     -38.508  15.571  49.812  1.00  0.00     0.000 A 
HETATM   17  C14 UNL     1     -40.701  15.556  50.095  1.00  0.00     0.000 A 
HETATM   18  C15 UNL     1     -41.133  14.169  50.396  1.00  0.00     0.000 A 
HETATM   19  C16 UNL     1     -41.327  14.996  50.274  1.00  0.00     0.000 A 
ENDROOT
TORSDOF 17
ENDMDL
