MODEL 1
REMARK VINA RESULT:     276.4      0.000      0.000
REMARK  24 active torsions:
REMARK  status: ('A' for Active; 'I' for Inactive)
REMARK    1  A    between atoms: O3_3  and  C5_8 
REMARK    2  A    between atoms: C2_5  and  C6_9 
REMARK    3  A    between atoms: C2_5  and  C7_10 
REMARK    4  A    between atoms: C2_5  and  C9_12 
REMARK    5  A    between atoms: C3_6  and  C4_7 
REMARK    6  A    between atoms: C3_6  and  C5_8 
REMARK    7  A    between atoms: C3_6  and  C8_11 
REMARK    8  A    between atoms: C3_6  and  C9_12 
REMARK    9  A    between atoms: C4_7  and  C7_10 
REMARK   10  A    between atoms: C5_8  and  C6_9 
REMARK   11  A    between atoms: C5_8  and  C7_10 
REMARK   12  A    between atoms: C5_8  and  C9_12 
REMARK   13  A    between atoms: C6_9  and  C8_11 
REMARK   14  A    between atoms: C6_9  and  C11_14 
REMARK   15  A    between atoms: C8_11  and  C9_12 
REMARK   16  A    between atoms: C9_12  and  C10_13 
REMARK   17  A    between atoms: C9_12  and  C11_14 
REMARK   18  A    between atoms: C10_13  and  C15_18 
REMARK   19  A    between atoms: C11_14  and  C12_15 
REMARK   20  A    between atoms: C11_14  and  C14_17 
REMARK   21  A    between atoms: C12_15  and  C13_16 
REMARK   22  A    between atoms: C12_15  and  C15_18 
REMARK   23  A    between atoms: C13_16  and  C14_17 
REMARK   24  A    between atoms: C14_17  and  C15_18 
ROOT
HETATM    1  O1  UNL     1     -37.535  12.744  49.818  1.00  0.00     0.000 OA
HETATM    2  O2  UNL     1     -40.644  15.683  49.553  1.00  0.00    -0.365 OA
HETATM    3  O3  UNL     1     -40.936  14.377  50.054  1.00  0.00     0.000 OA
HETATM    4  C1  UNL     1     -39.607  14.703  49.641  1.00  0.00     0.081 A 
HETATM    5  C2  UNL     1     -39.359  13.941  49.837  1.00  0.00     0.040 A 
HETATM    6  C3  UNL     1     -38.571  13.724  49.729  1.00  0.00     0.028 A 
HETATM    7  C4  UNL     1     -39.067  15.248  49.336  1.00  0.00     0.050 A 
HETATM    8  C5  UNL     1     -39.900  13.398  50.142  1.00  0.00     0.039 A 
HETATM    9  C6  UNL     1     -38.323  12.962  49.926  1.00  0.00     0.010 A 
HETATM   10  C7  UNL     1     -40.396  14.921  49.749  1.00  0.00     0.096 A 
HETATM   11  C8  UNL     1     -39.651  12.636  50.339  1.00  0.00     0.011 A 
HETATM   12  C9  UNL     1     -38.862  12.418  50.230  1.00  0.00     0.010 A 
HETATM   13  C10 UNL     1     -37.287  11.982  50.014  1.00  0.00     0.001 A 
HETATM   14  C11 UNL     1     -37.826  11.438  50.319  1.00  0.00     0.001 A 
HETATM   15  C12 UNL     1     -36.498  11.765  49.906  1.00  0.00     0.000 A 
HETATM   16  C13 UNL     1     -37.578  10.677  50.515  1.00  0.00     0.000 A 
HETATM   17  C14 UNL     1     -36.250  11.003  50.102  1.00  0.00     0.000 A 
HETATM   18  C15 UNL     1     -36.790  10.458  50.407  1.00  0.00     0.000 A 
ENDROOT
TORSDOF 24
ENDMDL
