MODEL 1
REMARK VINA RESULT:     121.9      0.000      0.000
REMARK  19 active torsions:
REMARK  status: ('A' for Active; 'I' for Inactive)
REMARK    1  A    between atoms: F1_1  and  C6_10 
REMARK    2  A    between atoms: F1_1  and  C8_12 
REMARK    3  A    between atoms: F2_2  and  C8_12 
REMARK    4  A    between atoms: F2_2  and  C10_14 
REMARK    5  A    between atoms: C1_5  and  C7_11 
REMARK    6  A    between atoms: C2_6  and  C4_8 
REMARK    7  A    between atoms: C3_7  and  C4_8 
REMARK    8  A    between atoms: C3_7  and  C10_14 
REMARK    9  A    between atoms: C4_8  and  C5_9 
REMARK   10  A    between atoms: C4_8  and  C7_11 
REMARK   11  A    between atoms: C6_10  and  C7_11 
REMARK   12  A    between atoms: C6_10  and  C9_13 
REMARK   13  A    between atoms: C6_10  and  C12_16 
REMARK   14  A    between atoms: C7_11  and  C8_12 
REMARK   15  A    between atoms: C7_11  and  C10_14 
REMARK   16  A    between atoms: C8_12  and  C12_16 
REMARK   17  A    between atoms: C8_12  and  C9_13 
REMARK   18  A    between atoms: C9_13  and  C10_14 
REMARK   19  A    between atoms: C10_14  and  C12_16 
ROOT
HETATM    1  F1  UNL     1     -40.922  13.464  48.772  1.00  0.00    -0.388 F 
HETATM    2  F2  UNL     1     -40.023  12.344  49.586  1.00  0.00    -0.386 F 
HETATM    3  F3  UNL     1     -40.910  12.298  48.829  1.00  0.00    -0.273 F 
HETATM    4  C12 UNL     1     -40.472  12.904  49.179  1.00  0.00     0.246 A 
ENDROOT
BRANCH   1   5
HETATM    5  C6  UNL     1     -40.206  14.297  49.351  1.00  0.00     0.137 A 
HETATM    6  C3  UNL     1     -39.673  14.808  49.721  1.00  0.00     0.087 A 
HETATM    7  C2  UNL     1     -38.870  14.622  49.739  1.00  0.00     0.044 A 
HETATM    8  C7  UNL     1     -39.945  15.504  50.071  1.00  0.00     0.087 A 
HETATM    9  C1  UNL     1     -38.337  15.133  50.109  1.00  0.00     0.024 A 
HETATM   10  C8  UNL     1     -41.010  14.483  49.333  1.00  0.00     0.145 A 
HETATM   11  C9  UNL     1     -40.748  15.689  50.053  1.00  0.00     0.106 A 
HETATM   12  N1  UNL     1     -37.534  14.948  50.127  1.00  0.00     0.000 N 
HETATM   13  C5  UNL     1     -37.001  15.459  50.496  1.00  0.00     0.023 A 
HETATM   14  C4  UNL     1     -38.608  15.829  50.459  1.00  0.00     0.024 A 
HETATM   15  C11 UNL     1     -36.197  15.273  50.515  1.00  0.00    -0.031 A 
HETATM   16  C10 UNL     1     -41.281  15.178  49.684  1.00  0.00     0.153 A 
ENDBRANCH   1   5
TORSDOF 19
ENDMDL
