MODEL 1
REMARK VINA RESULT:     116.7      0.000      0.000
REMARK  20 active torsions:
REMARK  status: ('A' for Active; 'I' for Inactive)
REMARK    1  A    between atoms: S1_1  and  S2_2 
REMARK    2  A    between atoms: S1_1  and  C7_15 
REMARK    3  A    between atoms: S2_2  and  O2_4 
REMARK    4  A    between atoms: S2_2  and  N2_6 
REMARK    5  A    between atoms: S2_2  and  N4_8 
REMARK    6  A    between atoms: O1_3  and  C2_10 
REMARK    7  A    between atoms: O2_4  and  C1_9 
REMARK    8  A    between atoms: O2_4  and  C3_11 
REMARK    9  A    between atoms: O2_4  and  C7_15 
REMARK   10  A    between atoms: N1_5  and  N2_6 
REMARK   11  A    between atoms: N3_7  and  C6_14 
REMARK   12  A    between atoms: N4_8  and  C9_17 
REMARK   13  A    between atoms: C1_9  and  C4_12 
REMARK   14  A    between atoms: C2_10  and  C3_11 
REMARK   15  A    between atoms: C2_10  and  C4_12 
REMARK   16  A    between atoms: C2_10  and  C6_14 
REMARK   17  A    between atoms: C3_11  and  C4_12 
REMARK   18  A    between atoms: C3_11  and  C5_13 
REMARK   19  A    between atoms: C4_12  and  C6_14 
REMARK   20  A    between atoms: C5_13  and  C6_14 
ROOT
HETATM    1  S1  UNL     1     -41.168  13.245  48.242  1.00  0.00    -0.185 SA
HETATM    2  S2  UNL     1     -41.241  11.610  48.780  1.00  0.00    -0.174 SA
HETATM    3  O1  UNL     1     -41.108  13.776  47.614  1.00  0.00     0.000 OA
HETATM    4  O2  UNL     1     -41.228  12.714  48.870  1.00  0.00     0.000 OA
HETATM    5  N1  UNL     1     -41.137  12.614  47.711  1.00  0.00     0.000 N 
HETATM    6  N2  UNL     1     -41.150  11.155  47.528  1.00  0.00     0.000 N 
HETATM    7  N3  UNL     1     -41.289  15.769  50.364  1.00  0.00    -0.273 NA
HETATM    8  N4  UNL     1     -41.202  10.504  48.032  1.00  0.00     0.000 N 
HETATM    9  C1  UNL     1     -41.198  13.876  48.772  1.00  0.00     0.068 A 
HETATM   10  C2  UNL     1     -41.162  14.651  48.494  1.00  0.00     0.068 A 
HETATM   11  C3  UNL     1     -41.265  13.731  49.581  1.00  0.00     0.068 A 
HETATM   12  C4  UNL     1     -41.259  15.138  49.834  1.00  0.00     0.074 A 
HETATM   13  C5  UNL     1     -41.192  15.282  49.024  1.00  0.00     0.074 A 
HETATM   14  C6  UNL     1     -41.295  14.362  50.112  1.00  0.00     0.074 A 
HETATM   15  C7  UNL     1     -41.174  11.838  47.989  1.00  0.00     0.081 A 
HETATM   16  C8  UNL     1     -41.258  10.785  48.806  1.00  0.00     0.067 A 
HETATM   17  C9  UNL     1     -41.321  10.322  49.487  1.00  0.00     0.060 A 
ENDROOT
TORSDOF 20
ENDMDL
