MODEL 1
REMARK VINA RESULT:     402.9      0.000      0.000
REMARK  32 active torsions:
REMARK  status: ('A' for Active; 'I' for Inactive)
REMARK    1  A    between atoms: S1_1  and  C3_12 
REMARK    2  A    between atoms: S1_1  and  C4_13 
REMARK    3  A    between atoms: S1_1  and  C5_14 
REMARK    4  A    between atoms: O3_4  and  C7_16 
REMARK    5  A    between atoms: O4_5  and  C13_22 
REMARK    6  A    between atoms: O5_6  and  C14_23 
REMARK    7  A    between atoms: O6_7  and  N2_9 
REMARK    8  A    between atoms: N1_8  and  C5_14 
REMARK    9  A    between atoms: N1_8  and  C2_11 
REMARK   10  A    between atoms: N1_8  and  C4_13 
REMARK   11  A    between atoms: N1_8  and  C8_17 
REMARK   12  A    between atoms: N2_9  and  C5_14 
REMARK   13  A    between atoms: N2_9  and  C10_19 
REMARK   14  A    between atoms: C1_10  and  C5_14 
REMARK   15  A    between atoms: C2_11  and  C3_12 
REMARK   16  A    between atoms: C2_11  and  C8_17 
REMARK   17  A    between atoms: C3_12  and  C5_14 
REMARK   18  A    between atoms: C3_12  and  C6_15 
REMARK   19  A    between atoms: C3_12  and  C7_16 
REMARK   20  A    between atoms: C6_15  and  C7_16 
REMARK   21  A    between atoms: C7_16  and  C8_17 
REMARK   22  A    between atoms: C9_18  and  C12_21 
REMARK   23  A    between atoms: C9_18  and  C13_22 
REMARK   24  A    between atoms: C11_20  and  C12_21 
REMARK   25  A    between atoms: C11_20  and  C17_26 
REMARK   26  A    between atoms: C12_21  and  C14_23 
REMARK   27  A    between atoms: C13_22  and  C14_23 
REMARK   28  A    between atoms: C13_22  and  C16_25 
REMARK   29  A    between atoms: C14_23  and  C15_24 
REMARK   30  A    between atoms: C14_23  and  C17_26 
REMARK   31  A    between atoms: C15_24  and  C16_25 
REMARK   32  A    between atoms: C16_25  and  C17_26 
ROOT
HETATM    1  S1  UNL     1     -36.496  12.528  48.250  1.00  0.00    -0.162 SA
HETATM    2  O1  UNL     1     -38.375  12.482  50.272  1.00  0.00    -0.345 OA
HETATM    3  O2  UNL     1     -36.906  10.878  50.410  1.00  0.00    -0.355 OA
HETATM    4  O3  UNL     1     -35.781  10.520  49.604  1.00  0.00     0.000 OA
HETATM    5  O4  UNL     1     -39.130  13.615  49.877  1.00  0.00     0.000 OA
HETATM    6  O5  UNL     1     -39.551  15.776  48.054  1.00  0.00     0.000 OA
HETATM    7  O6  UNL     1     -38.461  14.874  47.855  1.00  0.00     0.000 OA
HETATM    8  N1  UNL     1     -37.197  12.194  49.337  1.00  0.00     0.000 N 
HETATM    9  N2  UNL     1     -38.251  13.794  48.766  1.00  0.00     0.000 N 
HETATM   10  C1  UNL     1     -37.146  12.735  48.716  1.00  0.00     0.100 A 
HETATM   11  C2  UNL     1     -36.146  11.860  48.583  1.00  0.00     0.080 A 
HETATM   12  C3  UNL     1     -36.579  11.653  49.255  1.00  0.00     0.103 A 
HETATM   13  C4  UNL     1     -37.816  13.133  49.002  1.00  0.00     0.122 A 
HETATM   14  C5  UNL     1     -37.868  12.588  49.628  1.00  0.00     0.140 A 
HETATM   15  C6  UNL     1     -35.577  11.860  47.986  1.00  0.00     0.064 A 
HETATM   16  C7  UNL     1     -35.638  11.224  48.716  1.00  0.00     0.078 A 
HETATM   17  C8  UNL     1     -36.422  11.017  49.756  1.00  0.00     0.135 A 
HETATM   18  C9  UNL     1     -38.907  14.035  49.203  1.00  0.00     0.027 A 
HETATM   19  C10 UNL     1     -39.341  14.695  48.966  1.00  0.00     0.003 A 
HETATM   20  C11 UNL     1     -39.997  14.936  49.403  1.00  0.00     0.003 A 
HETATM   21  C12 UNL     1     -39.118  15.115  48.292  1.00  0.00     0.003 A 
HETATM   22  C13 UNL     1     -40.220  14.516  50.077  1.00  0.00     0.003 A 
HETATM   23  C14 UNL     1     -40.431  15.597  49.165  1.00  0.00     0.000 A 
HETATM   24  C15 UNL     1     -40.878  14.758  50.514  1.00  0.00     0.000 A 
HETATM   25  C16 UNL     1     -41.088  15.838  49.603  1.00  0.00     0.000 A 
HETATM   26  C17 UNL     1     -41.311  15.418  50.277  1.00  0.00     0.000 A 
ENDROOT
TORSDOF 32
ENDMDL
