MODEL 1
REMARK VINA RESULT:     228.5      0.000      0.000
REMARK  29 active torsions:
REMARK  status: ('A' for Active; 'I' for Inactive)
REMARK    1  A    between atoms: CL1_1  and  C15_19 
REMARK    2  A    between atoms: O1_2  and  C8_12 
REMARK    3  A    between atoms: O1_2  and  C10_14 
REMARK    4  A    between atoms: N1_3  and  C5_9 
REMARK    5  A    between atoms: N1_3  and  C6_10 
REMARK    6  A    between atoms: N1_3  and  C7_11 
REMARK    7  A    between atoms: N1_3  and  C11_15 
REMARK    8  A    between atoms: N2_4  and  C4_8 
REMARK    9  A    between atoms: N2_4  and  C5_9 
REMARK   10  A    between atoms: C2_6  and  C3_7 
REMARK   11  A    between atoms: C2_6  and  C6_10 
REMARK   12  A    between atoms: C3_7  and  C5_9 
REMARK   13  A    between atoms: C3_7  and  C4_8 
REMARK   14  A    between atoms: C3_7  and  C9_13 
REMARK   15  A    between atoms: C4_8  and  C7_11 
REMARK   16  A    between atoms: C4_8  and  C6_10 
REMARK   17  A    between atoms: C4_8  and  C11_15 
REMARK   18  A    between atoms: C5_9  and  C8_12 
REMARK   19  A    between atoms: C6_10  and  C16_20 
REMARK   20  A    between atoms: C8_12  and  C13_17 
REMARK   21  A    between atoms: C9_13  and  C12_16 
REMARK   22  A    between atoms: C10_14  and  C11_15 
REMARK   23  A    between atoms: C10_14  and  C15_19 
REMARK   24  A    between atoms: C10_14  and  C16_20 
REMARK   25  A    between atoms: C11_15  and  C14_18 
REMARK   26  A    between atoms: C11_15  and  C16_20 
REMARK   27  A    between atoms: C12_16  and  C13_17 
REMARK   28  A    between atoms: C14_18  and  C15_19 
REMARK   29  A    between atoms: C15_19  and  C16_20 
ROOT
HETATM    1 CL1  UNL     1     -41.324  11.448  47.695  1.00  0.00    -0.251 Cl
HETATM    2  O1  UNL     1     -38.859  13.382  47.960  1.00  0.00     0.000 OA
HETATM    3  N1  UNL     1     -39.957  14.457  48.501  1.00  0.00     0.000 N 
HETATM    4  N2  UNL     1     -40.318  15.650  48.965  1.00  0.00     0.000 N 
HETATM    5  C1  UNL     1     -39.315  14.007  48.245  1.00  0.00     0.008 A 
HETATM    6  C2  UNL     1     -38.639  14.476  48.297  1.00  0.00     0.003 A 
HETATM    7  C3  UNL     1     -39.678  15.204  48.711  1.00  0.00     0.001 A 
HETATM    8  C4  UNL     1     -40.768  14.446  48.627  1.00  0.00     0.006 A 
HETATM    9  C5  UNL     1     -38.863  15.217  48.585  1.00  0.00     0.000 A 
HETATM   10  C6  UNL     1     -39.817  13.367  48.108  1.00  0.00     0.028 A 
HETATM   11  C7  UNL     1     -40.990  15.182  48.913  1.00  0.00     0.000 A 
HETATM   12  C8  UNL     1     -37.817  14.308  48.109  1.00  0.00     0.000 A 
HETATM   13  C9  UNL     1     -38.282  15.838  48.704  1.00  0.00     0.000 A 
HETATM   14  C10 UNL     1     -39.512  12.658  47.818  1.00  0.00     0.032 A 
HETATM   15  C11 UNL     1     -40.624  13.437  48.261  1.00  0.00     0.030 A 
HETATM   16  C12 UNL     1     -37.223  14.917  48.221  1.00  0.00     0.000 A 
HETATM   17  C13 UNL     1     -37.456  15.688  48.521  1.00  0.00     0.000 A 
HETATM   18  C14 UNL     1     -40.014  12.018  47.680  1.00  0.00     0.047 A 
HETATM   19  C15 UNL     1     -41.127  12.797  48.123  1.00  0.00     0.047 A 
HETATM   20  C16 UNL     1     -40.821  12.088  47.833  1.00  0.00     0.047 A 
ENDROOT
TORSDOF 29
ENDMDL
