MODEL 1
REMARK VINA RESULT:     268.4      0.000      0.000
REMARK  32 active torsions:
REMARK  status: ('A' for Active; 'I' for Inactive)
REMARK    1  A    between atoms: O1_2  and  C1_7 
REMARK    2  A    between atoms: O2_3  and  C9_15 
REMARK    3  A    between atoms: O3_4  and  C5_11 
REMARK    4  A    between atoms: O3_4  and  C10_16 
REMARK    5  A    between atoms: N1_5  and  C1_7 
REMARK    6  A    between atoms: C1_7  and  C4_10 
REMARK    7  A    between atoms: C1_7  and  C8_14 
REMARK    8  A    between atoms: C1_7  and  C11_17 
REMARK    9  A    between atoms: C2_8  and  C4_10 
REMARK   10  A    between atoms: C2_8  and  C5_11 
REMARK   11  A    between atoms: C2_8  and  C9_15 
REMARK   12  A    between atoms: C2_8  and  C10_16 
REMARK   13  A    between atoms: C2_8  and  C13_19 
REMARK   14  A    between atoms: C3_9  and  C4_10 
REMARK   15  A    between atoms: C5_11  and  C6_12 
REMARK   16  A    between atoms: C5_11  and  C7_13 
REMARK   17  A    between atoms: C6_12  and  C9_15 
REMARK   18  A    between atoms: C6_12  and  C7_13 
REMARK   19  A    between atoms: C6_12  and  C8_14 
REMARK   20  A    between atoms: C6_12  and  C10_16 
REMARK   21  A    between atoms: C6_12  and  C13_19 
REMARK   22  A    between atoms: C7_13  and  C10_16 
REMARK   23  A    between atoms: C7_13  and  C9_15 
REMARK   24  A    between atoms: C7_13  and  C11_17 
REMARK   25  A    between atoms: C8_14  and  C16_22 
REMARK   26  A    between atoms: C9_15  and  C10_16 
REMARK   27  A    between atoms: C12_18  and  C13_19 
REMARK   28  A    between atoms: C12_18  and  C15_21 
REMARK   29  A    between atoms: C13_19  and  C14_20 
REMARK   30  A    between atoms: C13_19  and  C16_22 
REMARK   31  A    between atoms: C14_20  and  C15_21 
REMARK   32  A    between atoms: C15_21  and  C16_22 
ROOT
HETATM    1  S1  UNL     1     -37.060  13.353  50.085  1.00  0.00    -0.129 SA
HETATM    2  O2  UNL     1     -37.079  12.531  50.017  1.00  0.00     0.000 OA
HETATM    3  O3  UNL     1     -37.041  14.175  50.153  1.00  0.00     0.000 OA
HETATM    4  N2  UNL     1     -36.336  13.304  50.477  1.00  0.00    -0.082 NA
HETATM    5  C5  UNL     1     -37.785  13.402  49.694  1.00  0.00     0.042 A 
HETATM    6  C9  UNL     1     -38.163  12.714  49.439  1.00  0.00     0.042 A 
HETATM    7  C10 UNL     1     -38.130  14.137  49.557  1.00  0.00     0.042 A 
ENDROOT
BRANCH   5   8
HETATM    8  C2  UNL     1     -39.234  13.499  48.910  1.00  0.00     0.020 A 
HETATM    9  C1  UNL     1     -39.958  13.548  48.519  1.00  0.00     0.006 A 
HETATM   10  C3  UNL     1     -40.564  14.082  48.685  1.00  0.00     0.002 A 
HETATM   11  C6  UNL     1     -39.064  14.016  49.532  1.00  0.00     0.021 A 
HETATM   12  C7  UNL     1     -38.678  12.934  48.682  1.00  0.00     0.023 A 
HETATM   13  N1  UNL     1     -41.184  13.936  48.162  1.00  0.00     0.000 N 
HETATM   14  C8  UNL     1     -40.553  14.661  49.273  1.00  0.00     0.002 A 
HETATM   15  O1  UNL     1     -40.961  13.312  47.672  1.00  0.00     0.000 OA
HETATM   16  C12 UNL     1     -41.203  15.158  49.376  1.00  0.00     0.000 A 
HETATM   17  C13 UNL     1     -39.890  14.744  49.759  1.00  0.00     0.004 A 
HETATM   18  C4  UNL     1     -40.204  13.072  47.892  1.00  0.00     0.002 A 
HETATM   19  C11 UNL     1     -39.768  12.463  47.546  1.00  0.00     0.003 A 
HETATM   20  C14 UNL     1     -41.191  15.737  49.964  1.00  0.00     0.000 A 
HETATM   21  C15 UNL     1     -39.878  15.322  50.346  1.00  0.00     0.000 A 
HETATM   22  C16 UNL     1     -40.529  15.819  50.449  1.00  0.00     0.000 A 
ENDBRANCH   5   8
TORSDOF 32
ENDMDL
