MODEL 1
REMARK VINA RESULT:     310.5      0.000      0.000
REMARK WARNING: 32 MAX_TORS EXCEEDED!!!
REMARK  47 active torsions:
REMARK  status: ('A' for Active; 'I' for Inactive)
REMARK    1  A    between atoms: F2_2  and  N3_7 
REMARK    2  A    between atoms: F2_2  and  C1_10 
REMARK    3  A    between atoms: F2_2  and  C3_12 
REMARK    4  A    between atoms: F2_2  and  C8_17 
REMARK    5  A    between atoms: F2_2  and  C12_21 
REMARK    6  A    between atoms: F2_2  and  C14_23 
REMARK    7  A    between atoms: F3_3  and  C11_20 
REMARK    8  A    between atoms: O1_4  and  C5_14 
REMARK    9  A    between atoms: N1_5  and  C1_10 
REMARK   10  A    between atoms: N1_5  and  C4_13 
REMARK   11  A    between atoms: N1_5  and  C8_17 
REMARK   12  A    between atoms: N2_6  and  N5_9 
REMARK   13  A    between atoms: N2_6  and  C9_18 
REMARK   14  A    between atoms: N3_7  and  N4_8 
REMARK   15  A    between atoms: N3_7  and  C9_18 
REMARK   16  A    between atoms: N3_7  and  C14_23 
REMARK   17  A    between atoms: N4_8  and  C16_25 
REMARK   18  A    between atoms: N4_8  and  C8_17 
REMARK   19  A    between atoms: N4_8  and  C11_20 
REMARK   20  A    between atoms: C1_10  and  C3_12 
REMARK   21  A    between atoms: C1_10  and  C6_15 
REMARK   22  A    between atoms: C1_10  and  C7_16 
REMARK   23  A    between atoms: C1_10  and  C9_18 
REMARK   24  A    between atoms: C2_11  and  C3_12 
REMARK   25  A    between atoms: C2_11  and  C4_13 
REMARK   26  A    between atoms: C2_11  and  C9_18 
REMARK   27  A    between atoms: C3_12  and  C4_13 
REMARK   28  A    between atoms: C3_12  and  C6_15 
REMARK   29  A    between atoms: C3_12  and  C8_17 
REMARK   30  A    between atoms: C3_12  and  C9_18 
REMARK   31  A    between atoms: C3_12  and  C12_21 
REMARK   32  A    between atoms: C4_13  and  C10_19 
REMARK   33  A    between atoms: C4_13  and  C12_21 
REMARK   34  A    between atoms: C4_13  and  C13_22 
REMARK   35  A    between atoms: C5_14  and  C6_15 
REMARK   36  A    between atoms: C6_15  and  C14_23 
REMARK   37  A    between atoms: C7_16  and  C8_17 
REMARK   38  A    between atoms: C7_16  and  C11_20 
REMARK   39  A    between atoms: C7_16  and  C13_22 
REMARK   40  A    between atoms: C8_17  and  C10_19 
REMARK   41  A    between atoms: C8_17  and  C12_21 
REMARK   42  A    between atoms: C8_17  and  C13_22 
REMARK   43  A    between atoms: C9_18  and  C15_24 
REMARK   44  A    between atoms: C10_19  and  C11_20 
REMARK   45  A    between atoms: C11_20  and  C13_22 
REMARK   46  A    between atoms: C11_20  and  C12_21 
REMARK   47  A    between atoms: C12_21  and  C16_25 
ROOT
HETATM    1  F1  UNL     1     -41.247  14.107  47.813  1.00  0.00    -0.453 F 
HETATM    2  F2  UNL     1     -38.876  13.605  49.538  1.00  0.00    -0.574 F 
HETATM    3  F3  UNL     1     -40.993  11.260  47.821  1.00  0.00    -0.451 F 
HETATM    4  O1  UNL     1     -40.536  14.586  48.370  1.00  0.00     0.000 OA
HETATM    5  N1  UNL     1     -39.026  13.116  49.395  1.00  0.00     0.000 N 
HETATM    6  N2  UNL     1     -38.736  15.771  49.778  1.00  0.00     0.000 N 
HETATM    7  N3  UNL     1     -38.372  12.948  49.869  1.00  0.00     0.000 N 
HETATM    8  N4  UNL     1     -38.871  11.791  49.427  1.00  0.00     0.000 N 
HETATM    9  N5  UNL     1     -37.684  15.149  50.518  1.00  0.00     0.174 N 
HETATM   10  C1  UNL     1     -39.928  14.227  48.797  1.00  0.00     0.100 A 
HETATM   11  C2  UNL     1     -39.662  14.969  49.042  1.00  0.00     0.119 A 
HETATM   12  C3  UNL     1     -39.321  13.868  49.225  1.00  0.00     0.101 A 
HETATM   13  C4  UNL     1     -40.194  13.486  48.554  1.00  0.00     0.138 A 
HETATM   14  C5  UNL     1     -40.054  15.650  48.794  1.00  0.00     0.061 A 
HETATM   15  C6  UNL     1     -39.003  15.029  49.534  1.00  0.00     0.119 A 
HETATM   16  C7  UNL     1     -40.853  13.425  48.061  1.00  0.00     0.159 A 
HETATM   17  C8  UNL     1     -39.802  12.804  48.801  1.00  0.00     0.122 A 
HETATM   18  C9  UNL     1     -38.609  14.348  49.782  1.00  0.00     0.210 A 
HETATM   19  C10 UNL     1     -41.120  12.683  47.817  1.00  0.00     0.159 A 
HETATM   20  C11 UNL     1     -40.068  12.062  48.557  1.00  0.00     0.159 A 
HETATM   21  C12 UNL     1     -39.335  12.402  49.122  1.00  0.00     0.085 A 
HETATM   22  C13 UNL     1     -40.727  12.002  48.065  1.00  0.00     0.167 A 
HETATM   23  C14 UNL     1     -37.950  14.408  50.274  1.00  0.00     0.270 A 
HETATM   24  C15 UNL     1     -38.077  15.831  50.270  1.00  0.00     0.303 A 
HETATM   25  C16 UNL     1     -38.276  12.129  49.889  1.00  0.00     0.029 A 
ENDROOT
TORSDOF 47
ENDMDL
