MODEL 1
REMARK VINA RESULT:      72.4      0.000      0.000
REMARK  7 active torsions:
REMARK  status: ('A' for Active; 'I' for Inactive)
REMARK    1  A    between atoms: O1_1  and  C5_9 
REMARK    2  A    between atoms: C1_5  and  C6_10 
REMARK    3  A    between atoms: C2_6  and  C5_9 
REMARK    4  A    between atoms: C2_6  and  C7_11 
REMARK    5  A    between atoms: C3_7  and  C4_8 
REMARK    6  A    between atoms: C3_7  and  C5_9 
REMARK    7  A    between atoms: C4_8  and  C5_9 
ROOT
HETATM    1  O1  UNL     1     -41.320  13.566  48.465  1.00  0.00     0.000 OA
HETATM    2  O2  UNL     1     -39.927  11.733  47.553  1.00  0.00    -0.310 OA
HETATM    3  O3  UNL     1     -41.172  12.197  48.080  1.00  0.00    -0.310 OA
HETATM    4  N1  UNL     1     -40.687  15.080  48.627  1.00  0.00     0.000 N 
HETATM    5  C1  UNL     1     -40.222  14.470  48.323  1.00  0.00     0.053 A 
HETATM    6  C2  UNL     1     -40.539  13.713  48.242  1.00  0.00     0.104 A 
HETATM    7  C3  UNL     1     -41.150  15.691  48.931  1.00  0.00     0.005 A 
HETATM    8  C4  UNL     1     -40.053  15.603  48.545  1.00  0.00     0.005 A 
HETATM    9  C5  UNL     1     -41.320  14.558  48.709  1.00  0.00     0.014 A 
HETATM   10  C6  UNL     1     -40.074  13.102  47.938  1.00  0.00     0.201 A 
HETATM   11  C7  UNL     1     -40.391  12.344  47.857  1.00  0.00     0.239 A 
ENDROOT
TORSDOF 7
ENDMDL
