MODEL 1
REMARK VINA RESULT:      73.2      0.000      0.000
REMARK  30 active torsions:
REMARK  status: ('A' for Active; 'I' for Inactive)
REMARK    1  A    between atoms: S1_1  and  N2_5 
REMARK    2  A    between atoms: O1_2  and  C1_6 
REMARK    3  A    between atoms: O1_2  and  C2_7 
REMARK    4  A    between atoms: O1_2  and  C7_12 
REMARK    5  A    between atoms: O2_3  and  C1_6 
REMARK    6  A    between atoms: O2_3  and  C4_9 
REMARK    7  A    between atoms: O2_3  and  C9_14 
REMARK    8  A    between atoms: N1_4  and  N2_5 
REMARK    9  A    between atoms: N1_4  and  C1_6 
REMARK   10  A    between atoms: N2_5  and  C10_15 
REMARK   11  A    between atoms: N2_5  and  C1_6 
REMARK   12  A    between atoms: C1_6  and  C5_10 
REMARK   13  A    between atoms: C1_6  and  C6_11 
REMARK   14  A    between atoms: C1_6  and  C10_15 
REMARK   15  A    between atoms: C2_7  and  C5_10 
REMARK   16  A    between atoms: C2_7  and  C6_11 
REMARK   17  A    between atoms: C2_7  and  C9_14 
REMARK   18  A    between atoms: C3_8  and  C4_9 
REMARK   19  A    between atoms: C3_8  and  C7_12 
REMARK   20  A    between atoms: C3_8  and  C9_14 
REMARK   21  A    between atoms: C4_9  and  C5_10 
REMARK   22  A    between atoms: C4_9  and  C6_11 
REMARK   23  A    between atoms: C4_9  and  C7_12 
REMARK   24  A    between atoms: C4_9  and  C8_13 
REMARK   25  A    between atoms: C5_10  and  C6_11 
REMARK   26  A    between atoms: C5_10  and  C7_12 
REMARK   27  A    between atoms: C5_10  and  C10_15 
REMARK   28  A    between atoms: C6_11  and  C9_14 
REMARK   29  A    between atoms: C6_11  and  C10_15 
REMARK   30  A    between atoms: C7_12  and  C8_13 
ROOT
HETATM    1  S1  UNL     1     -41.001  15.637  50.460  1.00  0.00    -0.084 SA
HETATM    2  O1  UNL     1     -38.143  15.641  50.465  1.00  0.00     0.000 OA
HETATM    3  N1  UNL     1     -39.572  15.639  50.462  1.00  0.00     0.000 N 
HETATM    4  C5  UNL     1     -38.857  15.670  50.051  1.00  0.00     0.011 A 
HETATM    5  C10 UNL     1     -40.285  15.668  50.050  1.00  0.00     0.049 A 
ENDROOT
BRANCH   1   6
HETATM    6  N2  UNL     1     -40.285  15.727  49.227  1.00  0.00     0.000 N 
HETATM    7  C6  UNL     1     -40.135  15.448  48.466  1.00  0.00     0.011 A 
HETATM    8  O2  UNL     1     -39.567  15.819  47.995  1.00  0.00     0.000 OA
BRANCH   7   9
HETATM    9  C1  UNL     1     -40.552  14.799  48.175  1.00  0.00     0.012 A 
HETATM   10  C2  UNL     1     -40.922  14.072  48.302  1.00  0.00     0.008 A 
HETATM   11  C3  UNL     1     -40.936  13.742  49.059  1.00  0.00     0.012 A 
HETATM   12  C7  UNL     1     -41.276  13.674  47.672  1.00  0.00     0.008 A 
HETATM   13  C4  UNL     1     -40.567  14.470  48.931  1.00  0.00     0.008 A 
HETATM   14  C8  UNL     1     -41.305  13.016  49.185  1.00  0.00     0.015 A 
HETATM   15  C11 UNL     1     -41.319  12.686  49.942  1.00  0.00    -0.054 A 
HETATM   16  C9  UNL     1     -40.212  14.868  49.562  1.00  0.00     0.005 A 
ENDBRANCH   7   9
ENDBRANCH   1   6
TORSDOF 30
ENDMDL
