MODEL 1
REMARK VINA RESULT:     145.6      0.000      0.000
REMARK  17 active torsions:
REMARK  status: ('A' for Active; 'I' for Inactive)
REMARK    1  A    between atoms: O2_2  and  C12_14 
REMARK    2  A    between atoms: C1_3  and  C10_12 
REMARK    3  A    between atoms: C2_4  and  C7_9 
REMARK    4  A    between atoms: C3_5  and  C13_15 
REMARK    5  A    between atoms: C4_6  and  C5_7 
REMARK    6  A    between atoms: C4_6  and  C9_11 
REMARK    7  A    between atoms: C5_7  and  C8_10 
REMARK    8  A    between atoms: C5_7  and  C10_12 
REMARK    9  A    between atoms: C6_8  and  C7_9 
REMARK   10  A    between atoms: C6_8  and  C12_14 
REMARK   11  A    between atoms: C6_8  and  C13_15 
REMARK   12  A    between atoms: C7_9  and  C11_13 
REMARK   13  A    between atoms: C7_9  and  C13_15 
REMARK   14  A    between atoms: C8_10  and  C9_11 
REMARK   15  A    between atoms: C9_11  and  C10_12 
REMARK   16  A    between atoms: C11_13  and  C12_14 
REMARK   17  A    between atoms: C12_14  and  C13_15 
ROOT
HETATM    1  O1  UNL     1     -38.218  14.330  50.490  1.00  0.00     0.000 OA
HETATM    2  O2  UNL     1     -41.224  15.692  50.503  1.00  0.00     0.000 OA
HETATM    3  C1  UNL     1     -37.385  13.168  50.477  1.00  0.00     0.000 A 
HETATM    4  C2  UNL     1     -38.137  13.509  50.480  1.00  0.00     0.000 A 
HETATM    5  C3  UNL     1     -38.969  14.671  50.493  1.00  0.00     0.000 A 
HETATM    6  C4  UNL     1     -36.715  13.650  50.484  1.00  0.00     0.000 A 
HETATM    7  C5  UNL     1     -37.305  12.348  50.467  1.00  0.00     0.000 A 
HETATM    8  C6  UNL     1     -39.050  15.491  50.503  1.00  0.00     0.000 A 
HETATM    9  C7  UNL     1     -39.640  14.189  50.486  1.00  0.00     0.000 A 
HETATM   10  C8  UNL     1     -35.963  13.309  50.481  1.00  0.00     0.000 A 
HETATM   11  C9  UNL     1     -36.553  12.008  50.464  1.00  0.00     0.000 A 
HETATM   12  C10 UNL     1     -35.882  12.488  50.471  1.00  0.00     0.000 A 
HETATM   13  C11 UNL     1     -39.802  15.831  50.507  1.00  0.00     0.000 A 
HETATM   14  C12 UNL     1     -40.391  14.530  50.490  1.00  0.00     0.000 A 
HETATM   15  C13 UNL     1     -40.472  15.351  50.500  1.00  0.00     0.000 A 
ENDROOT
TORSDOF 17
ENDMDL
