MODEL 1
REMARK VINA RESULT:      49.5      0.000      0.000
REMARK  12 active torsions:
REMARK  status: ('A' for Active; 'I' for Inactive)
REMARK    1  A    between atoms: S1_1  and  C3_6 
REMARK    2  A    between atoms: S1_1  and  C4_7 
REMARK    3  A    between atoms: N1_2  and  C6_9 
REMARK    4  A    between atoms: N2_3  and  C4_7 
REMARK    5  A    between atoms: C1_4  and  C3_6 
REMARK    6  A    between atoms: C2_5  and  C6_9 
REMARK    7  A    between atoms: C3_6  and  C7_10 
REMARK    8  A    between atoms: C3_6  and  C8_11 
REMARK    9  A    between atoms: C4_7  and  C8_11 
REMARK   10  A    between atoms: C4_7  and  C7_10 
REMARK   11  A    between atoms: C6_9  and  C7_10 
REMARK   12  A    between atoms: C6_9  and  C8_11 
ROOT
HETATM    1  S1  UNL     1     -40.538  15.307  50.478  1.00  0.00    -0.133 SA
HETATM    2  N2  UNL     1     -39.356  15.837  49.874  1.00  0.00    -0.232 NA
HETATM    3  C8  UNL     1     -40.040  15.379  49.823  1.00  0.00     0.099 A 
ENDROOT
BRANCH   1   4
HETATM    4  C3  UNL     1     -40.912  14.534  49.067  1.00  0.00     0.064 A 
HETATM    5  C2  UNL     1     -41.099  14.149  48.363  1.00  0.00     0.045 A 
HETATM    6  N1  UNL     1     -41.304  14.587  47.695  1.00  0.00     0.000 N 
HETATM    7  C1  UNL     1     -41.080  13.325  48.326  1.00  0.00     0.035 A 
HETATM    8  C4  UNL     1     -40.930  15.359  49.104  1.00  0.00     0.076 A 
HETATM    9  C5  UNL     1     -41.267  12.939  47.621  1.00  0.00    -0.049 A 
HETATM   10  C7  UNL     1     -41.323  15.411  47.731  1.00  0.00     0.040 A 
HETATM   11  C6  UNL     1     -41.136  15.797  48.436  1.00  0.00     0.055 A 
ENDBRANCH   1   4
TORSDOF 12
ENDMDL
