MODEL 1
REMARK VINA RESULT:      49.5      0.000      0.000
REMARK  14 active torsions:
REMARK  status: ('A' for Active; 'I' for Inactive)
REMARK    1  A    between atoms: C1_4  and  C4_7 
REMARK    2  A    between atoms: C2_5  and  C3_6 
REMARK    3  A    between atoms: C2_5  and  C6_9 
REMARK    4  A    between atoms: C3_6  and  C4_7 
REMARK    5  A    between atoms: C3_6  and  C7_10 
REMARK    6  A    between atoms: C3_6  and  C9_12 
REMARK    7  A    between atoms: C4_7  and  C6_9 
REMARK    8  A    between atoms: C5_8  and  C6_9 
REMARK    9  A    between atoms: C5_8  and  C8_11 
REMARK   10  A    between atoms: C5_8  and  C9_12 
REMARK   11  A    between atoms: C6_9  and  C7_10 
REMARK   12  A    between atoms: C6_9  and  C9_12 
REMARK   13  A    between atoms: C7_10  and  C8_11 
REMARK   14  A    between atoms: C8_11  and  C9_12 
ROOT
HETATM    1  O1  UNL     1     -41.026  14.134  50.440  1.00  0.00     0.000 OA
HETATM    2  O2  UNL     1     -41.139  12.164  48.214  1.00  0.00     0.000 OA
HETATM    3  N1  UNL     1     -41.114  15.779  50.518  1.00  0.00    -0.277 NA
HETATM    4  C1  UNL     1     -41.123  14.575  49.750  1.00  0.00     0.052 A 
HETATM    5  C2  UNL     1     -41.167  15.397  49.788  1.00  0.00     0.061 A 
HETATM    6  C3  UNL     1     -41.175  14.192  49.021  1.00  0.00     0.032 A 
HETATM    7  C4  UNL     1     -41.264  15.838  49.098  1.00  0.00     0.061 A 
HETATM    8  C5  UNL     1     -41.131  13.370  48.981  1.00  0.00     0.017 A 
HETATM    9  C6  UNL     1     -41.272  14.633  48.330  1.00  0.00     0.032 A 
HETATM   10  C7  UNL     1     -41.184  12.988  48.252  1.00  0.00     0.008 A 
HETATM   11  C8  UNL     1     -41.325  14.250  47.601  1.00  0.00     0.008 A 
HETATM   12  C9  UNL     1     -41.281  13.428  47.562  1.00  0.00     0.008 A 
ENDROOT
TORSDOF 14
ENDMDL
