MODEL 1
REMARK VINA RESULT:      21.0      0.000      0.000
REMARK  4 active torsions:
REMARK  status: ('A' for Active; 'I' for Inactive)
REMARK    1  A    between atoms: CA1_1  and  O3_4 
REMARK    2  A    between atoms: CA1_1  and  O4_5 
REMARK    3  A    between atoms: CA1_1  and  C1_6 
REMARK    4  A    between atoms: CA1_1  and  C2_7 
ROOT
HETATM    1 CA1  UNL     1     -39.186  15.749  50.110  1.00  0.00     0.000 Ca
HETATM    2  O1  UNL     1     -38.472  15.753  50.522  1.00  0.00     0.000 OA
HETATM    3  O2  UNL     1     -39.900  15.711  50.523  1.00  0.00     0.000 OA
HETATM    4  O3  UNL     1     -37.760  15.826  49.285  1.00  0.00     0.000 OA
HETATM    5  O4  UNL     1     -40.616  15.742  49.287  1.00  0.00     0.000 OA
HETATM    6  C1  UNL     1     -37.044  15.795  50.521  1.00  0.00     0.000 A 
HETATM    7  C2  UNL     1     -41.328  15.669  50.524  1.00  0.00     0.000 A 
HETATM    8  C3  UNL     1     -37.758  15.791  50.109  1.00  0.00     0.000 A 
HETATM    9  C4  UNL     1     -40.615  15.708  50.111  1.00  0.00     0.000 A 
ENDROOT
TORSDOF 4
ENDMDL
