MODEL 1
REMARK VINA RESULT:     633.3      0.000      0.000
REMARK WARNING: 32 MAX_TORS EXCEEDED!!!
REMARK  49 active torsions:
REMARK  status: ('A' for Active; 'I' for Inactive)
REMARK    1  A    between atoms: O1_1  and  C12_20 
REMARK    2  A    between atoms: O1_1  and  C18_26 
REMARK    3  A    between atoms: N1_2  and  C4_12 
REMARK    4  A    between atoms: N2_3  and  C2_10 
REMARK    5  A    between atoms: N3_4  and  C12_20 
REMARK    6  A    between atoms: N5_6  and  N6_7 
REMARK    7  A    between atoms: N5_6  and  C16_24 
REMARK    8  A    between atoms: N6_7  and  C24_32 
REMARK    9  A    between atoms: N7_8  and  C28_36 
REMARK   10  A    between atoms: C1_9  and  C4_12 
REMARK   11  A    between atoms: C2_10  and  C4_12 
REMARK   12  A    between atoms: C2_10  and  C3_11 
REMARK   13  A    between atoms: C2_10  and  C5_13 
REMARK   14  A    between atoms: C2_10  and  C7_15 
REMARK   15  A    between atoms: C2_10  and  C8_16 
REMARK   16  A    between atoms: C4_12  and  C6_14 
REMARK   17  A    between atoms: C7_15  and  C12_20 
REMARK   18  A    between atoms: C8_16  and  C9_17 
REMARK   19  A    between atoms: C8_16  and  C11_19 
REMARK   20  A    between atoms: C9_17  and  C10_18 
REMARK   21  A    between atoms: C9_17  and  C12_20 
REMARK   22  A    between atoms: C10_18  and  C11_19 
REMARK   23  A    between atoms: C10_18  and  C13_21 
REMARK   24  A    between atoms: C11_19  and  C12_20 
REMARK   25  A    between atoms: C11_19  and  C13_21 
REMARK   26  A    between atoms: C12_20  and  C13_21 
REMARK   27  A    between atoms: C13_21  and  C18_26 
REMARK   28  A    between atoms: C14_22  and  C15_23 
REMARK   29  A    between atoms: C14_22  and  C17_25 
REMARK   30  A    between atoms: C14_22  and  C19_27 
REMARK   31  A    between atoms: C15_23  and  C18_26 
REMARK   32  A    between atoms: C16_24  and  C17_25 
REMARK   33  A    between atoms: C16_24  and  C18_26 
REMARK   34  A    between atoms: C16_24  and  C19_27 
REMARK   35  A    between atoms: C16_24  and  C21_29 
REMARK   36  A    between atoms: C17_25  and  C18_26 
REMARK   37  A    between atoms: C18_26  and  C19_27 
REMARK   38  A    between atoms: C19_27  and  C20_28 
REMARK   39  A    between atoms: C21_29  and  C24_32 
REMARK   40  A    between atoms: C22_30  and  C25_33 
REMARK   41  A    between atoms: C22_30  and  C27_35 
REMARK   42  A    between atoms: C23_31  and  C24_32 
REMARK   43  A    between atoms: C23_31  and  C29_37 
REMARK   44  A    between atoms: C24_32  and  C25_33 
REMARK   45  A    between atoms: C24_32  and  C26_34 
REMARK   46  A    between atoms: C26_34  and  C27_35 
REMARK   47  A    between atoms: C26_34  and  C29_37 
REMARK   48  A    between atoms: C27_35  and  C28_36 
REMARK   49  A    between atoms: C28_36  and  C29_37 
ROOT
HETATM    1  O1  UNL     1     -39.812  10.810  47.622  1.00  0.00     0.000 OA
HETATM    2  N3  UNL     1     -39.104  11.936  48.145  1.00  0.00     0.000 N 
HETATM    3  N4  UNL     1     -36.263  11.823  48.442  1.00  0.00     0.000 N 
HETATM    4  N5  UNL     1     -36.975  13.005  48.816  1.00  0.00     0.000 N 
HETATM    5  N6  UNL     1     -35.555  12.949  48.964  1.00  0.00     0.000 N 
HETATM    6  N7  UNL     1     -39.107  14.242  49.042  1.00  0.00    -0.012 N 
HETATM    7  C13 UNL     1     -39.814  11.579  47.921  1.00  0.00     0.000 A 
HETATM    8  C14 UNL     1     -38.393  11.523  48.070  1.00  0.00     0.000 A 
HETATM    9  C15 UNL     1     -36.973  11.467  48.218  1.00  0.00     0.000 A 
HETATM   10  C16 UNL     1     -37.684  11.879  48.293  1.00  0.00     0.000 A 
HETATM   11  C17 UNL     1     -36.973  10.698  47.919  1.00  0.00     0.000 A 
HETATM   12  C18 UNL     1     -38.392  10.753  47.771  1.00  0.00     0.000 A 
HETATM   13  C19 UNL     1     -37.681  10.342  47.696  1.00  0.00     0.000 A 
HETATM   14  C20 UNL     1     -36.262  10.286  47.844  1.00  0.00     0.000 A 
HETATM   15  C21 UNL     1     -36.264  12.593  48.741  1.00  0.00     0.005 A 
HETATM   16  C22 UNL     1     -36.976  13.774  49.115  1.00  0.00     0.055 A 
HETATM   17  C23 UNL     1     -37.687  14.187  49.190  1.00  0.00     0.178 A 
HETATM   18  C24 UNL     1     -36.266  14.131  49.339  1.00  0.00     0.034 A 
HETATM   19  C25 UNL     1     -35.556  13.718  49.263  1.00  0.00     0.006 A 
HETATM   20  C26 UNL     1     -37.687  14.955  49.489  1.00  0.00     0.103 A 
HETATM   21  C27 UNL     1     -38.397  13.830  48.967  1.00  0.00     0.197 A 
HETATM   22  C28 UNL     1     -38.398  15.367  49.564  1.00  0.00     0.217 A 
HETATM   23  C29 UNL     1     -39.108  15.011  49.341  1.00  0.00     0.217 A 
ENDROOT
BRANCH   1  24
HETATM   24  C12 UNL     1     -40.523  11.991  47.997  1.00  0.00     0.000 A 
HETATM   25  C10 UNL     1     -39.828  12.313  48.304  1.00  0.00     0.000 A 
HETATM   26  C8  UNL     1     -39.837  13.065  48.645  1.00  0.00     0.000 A 
HETATM   27  C7  UNL     1     -40.539  13.494  48.678  1.00  0.00     0.000 A 
HETATM   28  C5  UNL     1     -40.548  14.245  49.019  1.00  0.00     0.000 A 
HETATM   29  N1  UNL     1     -39.853  14.567  49.326  1.00  0.00     0.000 N 
HETATM   30  C1  UNL     1     -39.861  15.319  49.667  1.00  0.00     0.000 A 
HETATM   31  C9  UNL     1     -41.235  13.173  48.371  1.00  0.00     0.000 A 
HETATM   32  C2  UNL     1     -39.149  14.137  49.293  1.00  0.00     0.000 A 
HETATM   33  C3  UNL     1     -39.166  15.640  49.974  1.00  0.00     0.000 A 
HETATM   34  N2  UNL     1     -38.463  15.209  49.940  1.00  0.00     0.000 N 
HETATM   35  C4  UNL     1     -38.454  14.459  49.600  1.00  0.00     0.000 A 
HETATM   36  C6  UNL     1     -37.768  15.531  50.247  1.00  0.00     0.000 A 
HETATM   37  C11 UNL     1     -41.227  12.422  48.030  1.00  0.00     0.000 A 
ENDBRANCH   1  24
TORSDOF 49
ENDMDL
