MODEL 1
REMARK VINA RESULT:     415.2      0.000      0.000
REMARK WARNING: 32 MAX_TORS EXCEEDED!!!
REMARK  52 active torsions:
REMARK  status: ('A' for Active; 'I' for Inactive)
REMARK    1  A    between atoms: F1_1  and  C6_13 
REMARK    2  A    between atoms: F1_1  and  C16_23 
REMARK    3  A    between atoms: F1_1  and  C17_24 
REMARK    4  A    between atoms: O1_2  and  C6_13 
REMARK    5  A    between atoms: O1_2  and  C12_19 
REMARK    6  A    between atoms: O1_2  and  C15_22 
REMARK    7  A    between atoms: O1_2  and  C19_26 
REMARK    8  A    between atoms: O2_3  and  C6_13 
REMARK    9  A    between atoms: O2_3  and  C16_23 
REMARK   10  A    between atoms: O2_3  and  C17_24 
REMARK   11  A    between atoms: O3_4  and  C7_14 
REMARK   12  A    between atoms: O4_5  and  C19_26 
REMARK   13  A    between atoms: O6_7  and  C20_27 
REMARK   14  A    between atoms: C1_8  and  C4_11 
REMARK   15  A    between atoms: C1_8  and  C8_15 
REMARK   16  A    between atoms: C1_8  and  C9_16 
REMARK   17  A    between atoms: C1_8  and  C15_22 
REMARK   18  A    between atoms: C2_9  and  C4_11 
REMARK   19  A    between atoms: C2_9  and  C8_15 
REMARK   20  A    between atoms: C2_9  and  C9_16 
REMARK   21  A    between atoms: C3_10  and  C4_11 
REMARK   22  A    between atoms: C3_10  and  C6_13 
REMARK   23  A    between atoms: C3_10  and  C7_14 
REMARK   24  A    between atoms: C3_10  and  C8_15 
REMARK   25  A    between atoms: C3_10  and  C10_17 
REMARK   26  A    between atoms: C4_11  and  C6_13 
REMARK   27  A    between atoms: C4_11  and  C11_18 
REMARK   28  A    between atoms: C5_12  and  C6_13 
REMARK   29  A    between atoms: C5_12  and  C7_14 
REMARK   30  A    between atoms: C5_12  and  C12_19 
REMARK   31  A    between atoms: C5_12  and  C19_26 
REMARK   32  A    between atoms: C6_13  and  C8_15 
REMARK   33  A    between atoms: C6_13  and  C12_19 
REMARK   34  A    between atoms: C7_14  and  C9_16 
REMARK   35  A    between atoms: C8_15  and  C10_17 
REMARK   36  A    between atoms: C8_15  and  C12_19 
REMARK   37  A    between atoms: C8_15  and  C16_23 
REMARK   38  A    between atoms: C9_16  and  C15_22 
REMARK   39  A    between atoms: C10_17  and  C13_20 
REMARK   40  A    between atoms: C11_18  and  C14_21 
REMARK   41  A    between atoms: C12_19  and  C15_22 
REMARK   42  A    between atoms: C12_19  and  C19_26 
REMARK   43  A    between atoms: C13_20  and  C14_21 
REMARK   44  A    between atoms: C13_20  and  C18_25 
REMARK   45  A    between atoms: C14_21  and  C16_23 
REMARK   46  A    between atoms: C14_21  and  C17_24 
REMARK   47  A    between atoms: C14_21  and  C21_28 
REMARK   48  A    between atoms: C16_23  and  C17_24 
REMARK   49  A    between atoms: C16_23  and  C20_27 
REMARK   50  A    between atoms: C17_24  and  C21_28 
REMARK   51  A    between atoms: C18_25  and  C20_27 
REMARK   52  A    between atoms: C20_27  and  C21_28 
ROOT
HETATM    1  F1  UNL     1     -37.648  13.000  49.959  1.00  0.00    -0.622 F 
HETATM    2  O2  UNL     1     -37.350  13.557  49.947  1.00  0.00     0.000 OA
HETATM    3  O6  UNL     1     -35.667  10.235  49.769  1.00  0.00     0.000 OA
HETATM    4  C4  UNL     1     -38.290  12.483  49.997  1.00  0.00     0.029 A 
HETATM    5  C8  UNL     1     -38.129  13.292  49.999  1.00  0.00     0.033 A 
HETATM    6  C10 UNL     1     -37.638  11.927  49.940  1.00  0.00     0.026 A 
HETATM    7  C14 UNL     1     -37.799  11.082  49.938  1.00  0.00     0.049 A 
HETATM    8  C16 UNL     1     -37.216  12.635  49.922  1.00  0.00     0.043 A 
HETATM    9  C17 UNL     1     -36.799  12.234  49.885  1.00  0.00     0.035 A 
HETATM   10  C18 UNL     1     -37.132  10.488  49.879  1.00  0.00     0.031 A 
HETATM   11  C20 UNL     1     -36.119  11.655  49.826  1.00  0.00     0.051 A 
HETATM   12  C21 UNL     1     -36.287  10.776  49.823  1.00  0.00     0.033 A 
ENDROOT
BRANCH   1  13
HETATM   13  C6  UNL     1     -38.748  13.835  50.053  1.00  0.00     0.028 A 
HETATM   14  C1  UNL     1     -39.046  14.278  49.426  1.00  0.00     0.055 A 
HETATM   15  C2  UNL     1     -38.685  14.240  48.685  1.00  0.00     0.047 A 
HETATM   16  C5  UNL     1     -39.680  14.796  49.369  1.00  0.00     0.061 A 
HETATM   17  C12 UNL     1     -39.408  14.317  50.166  1.00  0.00     0.073 C 
HETATM   18  O1  UNL     1     -39.854  14.669  50.165  1.00  0.00     0.000 OA
HETATM   19  C3  UNL     1     -38.026  13.757  48.572  1.00  0.00     0.046 A 
HETATM   20  C7  UNL     1     -39.098  14.734  48.177  1.00  0.00     0.028 A 
HETATM   21  C11 UNL     1     -37.658  13.725  47.796  1.00  0.00     0.035 A 
HETATM   22  C13 UNL     1     -36.971  13.225  47.673  1.00  0.00     0.032 A 
HETATM   23  C9  UNL     1     -39.712  15.077  48.599  1.00  0.00     0.039 A 
HETATM   24  C15 UNL     1     -40.340  15.252  49.562  1.00  0.00     0.092 A 
HETATM   25  O3  UNL     1     -40.265  15.612  48.301  1.00  0.00     0.000 OA
HETATM   26  O4  UNL     1     -40.697  15.724  48.988  1.00  0.00     0.000 OA
HETATM   27  C19 UNL     1     -40.643  15.236  50.330  1.00  0.00     0.121 A 
HETATM   28  O5  UNL     1     -41.303  15.692  50.522  1.00  0.00    -0.363 OA
ENDBRANCH   1  13
TORSDOF 52
ENDMDL
