MODEL 1
REMARK VINA RESULT:     239.1      0.000      0.000
REMARK  32 active torsions:
REMARK  status: ('A' for Active; 'I' for Inactive)
REMARK    1  A    between atoms: O1_1  and  C14_16 
REMARK    2  A    between atoms: O2_2  and  C18_20 
REMARK    3  A    between atoms: C1_3  and  C7_9 
REMARK    4  A    between atoms: C1_3  and  C8_10 
REMARK    5  A    between atoms: C1_3  and  C11_13 
REMARK    6  A    between atoms: C2_4  and  C4_6 
REMARK    7  A    between atoms: C2_4  and  C7_9 
REMARK    8  A    between atoms: C2_4  and  C11_13 
REMARK    9  A    between atoms: C3_5  and  C6_8 
REMARK   10  A    between atoms: C3_5  and  C9_11 
REMARK   11  A    between atoms: C3_5  and  C16_18 
REMARK   12  A    between atoms: C4_6  and  C6_8 
REMARK   13  A    between atoms: C4_6  and  C10_12 
REMARK   14  A    between atoms: C5_7  and  C7_9 
REMARK   15  A    between atoms: C5_7  and  C13_15 
REMARK   16  A    between atoms: C6_8  and  C7_9 
REMARK   17  A    between atoms: C6_8  and  C8_10 
REMARK   18  A    between atoms: C6_8  and  C14_16 
REMARK   19  A    between atoms: C7_9  and  C14_16 
REMARK   20  A    between atoms: C7_9  and  C16_18 
REMARK   21  A    between atoms: C8_10  and  C9_11 
REMARK   22  A    between atoms: C8_10  and  C14_16 
REMARK   23  A    between atoms: C9_11  and  C11_13 
REMARK   24  A    between atoms: C10_12  and  C12_14 
REMARK   25  A    between atoms: C12_14  and  C13_15 
REMARK   26  A    between atoms: C12_14  and  C15_17 
REMARK   27  A    between atoms: C12_14  and  C19_21 
REMARK   28  A    between atoms: C13_15  and  C18_20 
REMARK   29  A    between atoms: C15_17  and  C16_18 
REMARK   30  A    between atoms: C15_17  and  C19_21 
REMARK   31  A    between atoms: C17_19  and  C18_20 
REMARK   32  A    between atoms: C18_20  and  C19_21 
ROOT
HETATM    1  O1  UNL     1     -36.387  11.527  50.356  1.00  0.00     0.000 OA
HETATM    2  O2  UNL     1     -41.296  15.838  50.520  1.00  0.00     0.000 OA
HETATM    3  C1  UNL     1     -37.142  13.517  50.439  1.00  0.00     0.000 A 
HETATM    4  C2  UNL     1     -37.262  12.702  50.403  1.00  0.00     0.000 A 
HETATM    5  C3  UNL     1     -37.788  14.028  50.458  1.00  0.00     0.000 A 
HETATM    6  C4  UNL     1     -38.554  13.725  50.441  1.00  0.00     0.000 A 
HETATM    7  C5  UNL     1     -39.237  14.248  50.461  1.00  0.00     0.000 A 
HETATM    8  C6  UNL     1     -38.028  12.398  50.386  1.00  0.00     0.000 A 
HETATM    9  C7  UNL     1     -38.675  12.910  50.406  1.00  0.00     0.000 A 
HETATM   10  C8  UNL     1     -36.526  12.339  50.391  1.00  0.00     0.000 A 
HETATM   11  C9  UNL     1     -36.333  13.651  50.448  1.00  0.00     0.000 A 
HETATM   12  C10 UNL     1     -37.650  14.876  50.495  1.00  0.00     0.000 A 
HETATM   13  C11 UNL     1     -35.953  12.925  50.418  1.00  0.00     0.000 A 
HETATM   14  C12 UNL     1     -39.117  15.098  50.498  1.00  0.00     0.000 A 
HETATM   15  C13 UNL     1     -38.319  15.414  50.515  1.00  0.00     0.000 A 
HETATM   16  C14 UNL     1     -37.382  11.886  50.367  1.00  0.00     0.000 C 
HETATM   17  C15 UNL     1     -40.060  13.899  50.442  1.00  0.00     0.000 A 
HETATM   18  C16 UNL     1     -39.351  13.432  50.425  1.00  0.00     0.000 A 
HETATM   19  C17 UNL     1     -40.770  14.443  50.462  1.00  0.00     0.000 A 
HETATM   20  C18 UNL     1     -39.815  15.658  50.519  1.00  0.00     0.000 A 
HETATM   21  C19 UNL     1     -40.647  15.329  50.501  1.00  0.00     0.000 A 
ENDROOT
TORSDOF 32
ENDMDL
