MODEL 1
REMARK VINA RESULT:     429.4      0.000      0.000
REMARK  27 active torsions:
REMARK  status: ('A' for Active; 'I' for Inactive)
REMARK    1  A    between atoms: CL1_1  and  C10_16 
REMARK    2  A    between atoms: O1_2  and  O3_4 
REMARK    3  A    between atoms: O1_2  and  C4_10 
REMARK    4  A    between atoms: O1_2  and  C13_19 
REMARK    5  A    between atoms: N1_5  and  C4_10 
REMARK    6  A    between atoms: N2_6  and  C6_12 
REMARK    7  A    between atoms: N2_6  and  C13_19 
REMARK    8  A    between atoms: C1_7  and  C5_11 
REMARK    9  A    between atoms: C1_7  and  C8_14 
REMARK   10  A    between atoms: C1_7  and  C9_15 
REMARK   11  A    between atoms: C1_7  and  C12_18 
REMARK   12  A    between atoms: C2_8  and  C3_9 
REMARK   13  A    between atoms: C3_9  and  C7_13 
REMARK   14  A    between atoms: C4_10  and  C6_12 
REMARK   15  A    between atoms: C5_11  and  C7_13 
REMARK   16  A    between atoms: C5_11  and  C16_22 
REMARK   17  A    between atoms: C6_12  and  C13_19 
REMARK   18  A    between atoms: C7_13  and  C10_16 
REMARK   19  A    between atoms: C7_13  and  C12_18 
REMARK   20  A    between atoms: C8_14  and  C9_15 
REMARK   21  A    between atoms: C9_15  and  C10_16 
REMARK   22  A    between atoms: C11_17  and  C12_18 
REMARK   23  A    between atoms: C11_17  and  C15_21 
REMARK   24  A    between atoms: C12_18  and  C14_20 
REMARK   25  A    between atoms: C12_18  and  C16_22 
REMARK   26  A    between atoms: C14_20  and  C15_21 
REMARK   27  A    between atoms: C15_21  and  C16_22 
ROOT
HETATM    1 CL1  UNL     1     -40.957  12.926  47.950  1.00  0.00    -0.251 Cl
HETATM    2  O1  UNL     1     -37.222  15.636  48.955  1.00  0.00     0.000 OA
HETATM    3  O2  UNL     1     -36.124  13.729  49.820  1.00  0.00    -0.356 OA
HETATM    4  O3  UNL     1     -36.192  15.120  49.498  1.00  0.00     0.000 OA
HETATM    5  N1  UNL     1     -38.417  15.017  48.581  1.00  0.00     0.000 N 
HETATM    6  N2  UNL     1     -37.595  13.496  49.248  1.00  0.00     0.000 N 
HETATM    7  C1  UNL     1     -38.949  13.630  48.649  1.00  0.00     0.024 A 
HETATM    8  C2  UNL     1     -38.329  13.213  48.998  1.00  0.00     0.032 A 
HETATM    9  C3  UNL     1     -38.988  14.434  48.463  1.00  0.00     0.028 A 
HETATM   10  C4  UNL     1     -37.300  14.265  49.211  1.00  0.00     0.121 A 
HETATM   11  C5  UNL     1     -38.460  12.407  49.113  1.00  0.00     0.012 A 
HETATM   12  C6  UNL     1     -37.666  14.942  48.914  1.00  0.00     0.059 A 
HETATM   13  C7  UNL     1     -39.609  13.106  48.481  1.00  0.00     0.035 A 
HETATM   14  C8  UNL     1     -39.690  14.768  48.097  1.00  0.00     0.028 A 
HETATM   15  C9  UNL     1     -40.319  13.422  48.115  1.00  0.00     0.052 A 
HETATM   16  C10 UNL     1     -40.360  14.258  47.922  1.00  0.00     0.052 A 
HETATM   17  C11 UNL     1     -37.875  11.939  49.458  1.00  0.00     0.005 A 
HETATM   18  C12 UNL     1     -39.176  12.069  48.882  1.00  0.00     0.012 A 
HETATM   19  C13 UNL     1     -36.539  14.371  49.509  1.00  0.00     0.142 A 
HETATM   20  C14 UNL     1     -38.006  11.132  49.572  1.00  0.00     0.002 A 
HETATM   21  C15 UNL     1     -39.307  11.262  48.996  1.00  0.00     0.002 A 
HETATM   22  C16 UNL     1     -38.722  10.794  49.342  1.00  0.00     0.002 A 
ENDROOT
TORSDOF 27
ENDMDL
