MODEL 1
REMARK VINA RESULT:      65.6      0.000      0.000
REMARK  17 active torsions:
REMARK  status: ('A' for Active; 'I' for Inactive)
REMARK    1  A    between atoms: CL1_1  and  N1_3 
REMARK    2  A    between atoms: CL1_1  and  C7_13 
REMARK    3  A    between atoms: CL2_2  and  C7_13 
REMARK    4  A    between atoms: N1_3  and  C1_7 
REMARK    5  A    between atoms: N3_5  and  N4_6 
REMARK    6  A    between atoms: C1_7  and  C7_13 
REMARK    7  A    between atoms: C1_7  and  C4_10 
REMARK    8  A    between atoms: C1_7  and  C5_11 
REMARK    9  A    between atoms: C1_7  and  C6_12 
REMARK   10  A    between atoms: C2_8  and  C3_9 
REMARK   11  A    between atoms: C2_8  and  C5_11 
REMARK   12  A    between atoms: C2_8  and  C7_13 
REMARK   13  A    between atoms: C3_9  and  C4_10 
REMARK   14  A    between atoms: C3_9  and  C6_12 
REMARK   15  A    between atoms: C3_9  and  C7_13 
REMARK   16  A    between atoms: C4_10  and  C5_11 
REMARK   17  A    between atoms: C5_11  and  C6_12 
ROOT
HETATM    1 CL1  UNL     1     -40.677  15.350  48.229  1.00  0.00    -0.261 Cl
HETATM    2 CL2  UNL     1     -40.875  13.345  50.256  1.00  0.00    -0.261 Cl
HETATM    3  C1  UNL     1     -40.776  14.348  49.243  1.00  0.00     0.071 A 
HETATM    4  C2  UNL     1     -40.864  14.579  48.456  1.00  0.00     0.077 A 
HETATM    5  C3  UNL     1     -40.963  13.577  49.469  1.00  0.00     0.077 A 
HETATM    6  C4  UNL     1     -41.139  14.040  47.896  1.00  0.00     0.071 A 
HETATM    7  C5  UNL     1     -41.238  13.038  48.909  1.00  0.00     0.071 A 
HETATM    8  C6  UNL     1     -41.326  13.269  48.122  1.00  0.00     0.066 A 
ENDROOT
BRANCH   1   9
HETATM    9  N1  UNL     1     -40.313  15.658  49.577  1.00  0.00     0.000 N 
HETATM   10  N2  UNL     1     -39.732  15.779  50.150  1.00  0.00     0.000 N 
HETATM   11  C8  UNL     1     -38.935  15.713  49.949  1.00  0.00     0.218 A 
HETATM   12  N3  UNL     1     -38.354  15.834  50.523  1.00  0.00    -0.109 NA
HETATM   13  N4  UNL     1     -38.718  15.527  49.176  1.00  0.00    -0.109 NA
HETATM   14  C7  UNL     1     -41.111  15.723  49.777  1.00  0.00     0.089 A 
ENDBRANCH   1   9
TORSDOF 17
ENDMDL
