MODEL 1
REMARK VINA RESULT:     462.3      0.000      0.000
REMARK WARNING: 32 MAX_TORS EXCEEDED!!!
REMARK  41 active torsions:
REMARK  status: ('A' for Active; 'I' for Inactive)
REMARK    1  A    between atoms: O1_1  and  C7_12 
REMARK    2  A    between atoms: O1_1  and  C12_17 
REMARK    3  A    between atoms: O2_2  and  C7_12 
REMARK    4  A    between atoms: O2_2  and  C16_21 
REMARK    5  A    between atoms: O2_2  and  C17_22 
REMARK    6  A    between atoms: O3_3  and  C19_24 
REMARK    7  A    between atoms: O5_5  and  C20_25 
REMARK    8  A    between atoms: C1_6  and  C4_9 
REMARK    9  A    between atoms: C1_6  and  C11_16 
REMARK   10  A    between atoms: C1_6  and  C15_20 
REMARK   11  A    between atoms: C2_7  and  C8_13 
REMARK   12  A    between atoms: C2_7  and  C11_16 
REMARK   13  A    between atoms: C3_8  and  C6_11 
REMARK   14  A    between atoms: C3_8  and  C7_12 
REMARK   15  A    between atoms: C3_8  and  C11_16 
REMARK   16  A    between atoms: C3_8  and  C16_21 
REMARK   17  A    between atoms: C4_9  and  C7_12 
REMARK   18  A    between atoms: C4_9  and  C10_15 
REMARK   19  A    between atoms: C5_10  and  C6_11 
REMARK   20  A    between atoms: C5_10  and  C7_12 
REMARK   21  A    between atoms: C5_10  and  C12_17 
REMARK   22  A    between atoms: C5_10  and  C19_24 
REMARK   23  A    between atoms: C6_11  and  C8_13 
REMARK   24  A    between atoms: C7_12  and  C11_16 
REMARK   25  A    between atoms: C7_12  and  C12_17 
REMARK   26  A    between atoms: C8_13  and  C15_20 
REMARK   27  A    between atoms: C8_13  and  C19_24 
REMARK   28  A    between atoms: C9_14  and  C11_16 
REMARK   29  A    between atoms: C9_14  and  C13_18 
REMARK   30  A    between atoms: C10_15  and  C14_19 
REMARK   31  A    between atoms: C11_16  and  C12_17 
REMARK   32  A    between atoms: C11_16  and  C16_21 
REMARK   33  A    between atoms: C12_17  and  C15_20 
REMARK   34  A    between atoms: C13_18  and  C14_19 
REMARK   35  A    between atoms: C13_18  and  C18_23 
REMARK   36  A    between atoms: C14_19  and  C17_22 
REMARK   37  A    between atoms: C14_19  and  C21_26 
REMARK   38  A    between atoms: C16_21  and  C17_22 
REMARK   39  A    between atoms: C17_22  and  C21_26 
REMARK   40  A    between atoms: C18_23  and  C20_25 
REMARK   41  A    between atoms: C20_25  and  C21_26 
ROOT
HETATM    1  O1  UNL     1     -38.907  14.939  48.804  1.00  0.00     0.000 OA
HETATM    2  O2  UNL     1     -36.603  13.502  49.188  1.00  0.00     0.000 OA
HETATM    3  O3  UNL     1     -39.523  15.666  48.554  1.00  0.00     0.000 OA
HETATM    4  O4  UNL     1     -41.161  15.600  48.750  1.00  0.00    -0.363 OA
HETATM    5  O5  UNL     1     -35.401  10.218  50.482  1.00  0.00     0.000 OA
HETATM    6  C1  UNL     1     -38.753  13.875  49.247  1.00  0.00     0.021 A 
HETATM    7  C2  UNL     1     -39.024  13.170  49.579  1.00  0.00     0.011 A 
HETATM    8  C3  UNL     1     -38.489  12.576  49.781  1.00  0.00     0.003 A 
HETATM    9  C4  UNL     1     -37.682  12.686  49.651  1.00  0.00     0.003 A 
HETATM   10  C5  UNL     1     -39.404  14.353  49.108  1.00  0.00     0.039 A 
HETATM   11  C6  UNL     1     -39.841  13.220  49.641  1.00  0.00     0.010 A 
HETATM   12  C7  UNL     1     -37.946  13.986  49.117  1.00  0.00     0.008 A 
HETATM   13  C8  UNL     1     -40.074  13.950  49.350  1.00  0.00     0.044 A 
HETATM   14  C9  UNL     1     -37.114  12.075  49.856  1.00  0.00     0.000 A 
HETATM   15  C10 UNL     1     -38.784  11.846  50.126  1.00  0.00     0.001 A 
HETATM   16  C11 UNL     1     -37.410  13.391  49.319  1.00  0.00     0.004 A 
HETATM   17  C12 UNL     1     -38.482  14.579  48.916  1.00  0.00     0.024 C 
HETATM   18  C13 UNL     1     -38.231  11.223  50.338  1.00  0.00     0.000 A 
HETATM   19  C14 UNL     1     -37.390  11.339  50.202  1.00  0.00     0.000 A 
HETATM   20  C15 UNL     1     -39.873  14.993  48.880  1.00  0.00     0.081 A 
HETATM   21  C16 UNL     1     -36.849  12.782  49.524  1.00  0.00     0.000 A 
HETATM   22  C17 UNL     1     -36.243  12.214  49.707  1.00  0.00     0.000 A 
HETATM   23  C18 UNL     1     -36.814  10.690  50.423  1.00  0.00     0.000 A 
HETATM   24  C19 UNL     1     -40.691  14.960  48.978  1.00  0.00     0.115 A 
HETATM   25  C20 UNL     1     -35.651  11.577  49.921  1.00  0.00     0.000 A 
HETATM   26  C21 UNL     1     -35.939  10.810  50.281  1.00  0.00     0.000 A 
ENDROOT
TORSDOF 41
ENDMDL
