MODEL 1
REMARK VINA RESULT:     150.3      0.000      0.000
REMARK  17 active torsions:
REMARK  status: ('A' for Active; 'I' for Inactive)
REMARK    1  A    between atoms: CL1_1  and  C10_14 
REMARK    2  A    between atoms: O2_3  and  C2_6 
REMARK    3  A    between atoms: O3_4  and  C3_7 
REMARK    4  A    between atoms: C1_5  and  C7_11 
REMARK    5  A    between atoms: C2_6  and  C3_7 
REMARK    6  A    between atoms: C2_6  and  C4_8 
REMARK    7  A    between atoms: C3_7  and  C4_8 
REMARK    8  A    between atoms: C3_7  and  C5_9 
REMARK    9  A    between atoms: C3_7  and  C7_11 
REMARK   10  A    between atoms: C5_9  and  C12_16 
REMARK   11  A    between atoms: C7_11  and  C8_12 
REMARK   12  A    between atoms: C7_11  and  C10_14 
REMARK   13  A    between atoms: C7_11  and  C12_16 
REMARK   14  A    between atoms: C8_12  and  C9_13 
REMARK   15  A    between atoms: C8_12  and  C12_16 
REMARK   16  A    between atoms: C9_13  and  C10_14 
REMARK   17  A    between atoms: C10_14  and  C12_16 
ROOT
HETATM    1 CL1  UNL     1     -41.327  15.237  50.503  1.00  0.00    -0.251 Cl
HETATM    2  O1  UNL     1     -39.035  15.352  48.132  1.00  0.00     0.000 OA
HETATM    3  O2  UNL     1     -36.885  15.666  47.929  1.00  0.00     0.000 OA
HETATM    4  O3  UNL     1     -37.242  15.750  49.310  1.00  0.00     0.000 OA
HETATM    5  C1  UNL     1     -38.246  15.495  48.326  1.00  0.00     0.006 A 
HETATM    6  C2  UNL     1     -38.040  15.446  47.530  1.00  0.00     0.001 A 
HETATM    7  C3  UNL     1     -38.453  15.543  49.124  1.00  0.00     0.006 A 
HETATM    8  C4  UNL     1     -37.458  15.637  48.522  1.00  0.00     0.004 A 
HETATM    9  C5  UNL     1     -39.608  15.323  48.725  1.00  0.00     0.030 A 
HETATM   10  C6  UNL     1     -36.096  15.808  48.124  1.00  0.00     0.026 A 
HETATM   11  C7  UNL     1     -39.392  15.437  49.512  1.00  0.00     0.030 A 
HETATM   12  C8  UNL     1     -40.397  15.181  48.528  1.00  0.00     0.035 A 
HETATM   13  C9  UNL     1     -39.966  15.408  50.105  1.00  0.00     0.048 A 
HETATM   14  C10 UNL     1     -40.970  15.152  49.121  1.00  0.00     0.048 A 
HETATM   15  C11 UNL     1     -35.523  15.837  47.531  1.00  0.00    -0.031 A 
HETATM   16  C12 UNL     1     -40.754  15.266  49.910  1.00  0.00     0.048 A 
ENDROOT
TORSDOF 17
ENDMDL
