MODEL 1
REMARK VINA RESULT:     559.7      0.000      0.000
REMARK WARNING: 32 MAX_TORS EXCEEDED!!!
REMARK  68 active torsions:
REMARK  status: ('A' for Active; 'I' for Inactive)
REMARK    1  A    between atoms: O1_1  and  C9_14 
REMARK    2  A    between atoms: O1_1  and  C11_16 
REMARK    3  A    between atoms: O2_2  and  C20_25 
REMARK    4  A    between atoms: O3_3  and  C6_11 
REMARK    5  A    between atoms: O3_3  and  C29_34 
REMARK    6  A    between atoms: O4_4  and  C26_31 
REMARK    7  A    between atoms: C1_6  and  C3_8 
REMARK    8  A    between atoms: C1_6  and  C5_10 
REMARK    9  A    between atoms: C1_6  and  C9_14 
REMARK   10  A    between atoms: C1_6  and  C12_17 
REMARK   11  A    between atoms: C1_6  and  C15_20 
REMARK   12  A    between atoms: C2_7  and  C3_8 
REMARK   13  A    between atoms: C2_7  and  C5_10 
REMARK   14  A    between atoms: C2_7  and  C7_12 
REMARK   15  A    between atoms: C2_7  and  C9_14 
REMARK   16  A    between atoms: C2_7  and  C12_17 
REMARK   17  A    between atoms: C2_7  and  C16_21 
REMARK   18  A    between atoms: C3_8  and  C6_11 
REMARK   19  A    between atoms: C3_8  and  C8_13 
REMARK   20  A    between atoms: C3_8  and  C13_18 
REMARK   21  A    between atoms: C3_8  and  C20_25 
REMARK   22  A    between atoms: C4_9  and  C5_10 
REMARK   23  A    between atoms: C4_9  and  C6_11 
REMARK   24  A    between atoms: C4_9  and  C8_13 
REMARK   25  A    between atoms: C4_9  and  C9_14 
REMARK   26  A    between atoms: C4_9  and  C10_15 
REMARK   27  A    between atoms: C4_9  and  C11_16 
REMARK   28  A    between atoms: C5_10  and  C6_11 
REMARK   29  A    between atoms: C5_10  and  C8_13 
REMARK   30  A    between atoms: C5_10  and  C9_14 
REMARK   31  A    between atoms: C6_11  and  C7_12 
REMARK   32  A    between atoms: C6_11  and  C8_13 
REMARK   33  A    between atoms: C6_11  and  C9_14 
REMARK   34  A    between atoms: C6_11  and  C10_15 
REMARK   35  A    between atoms: C6_11  and  C13_18 
REMARK   36  A    between atoms: C7_12  and  C8_13 
REMARK   37  A    between atoms: C7_12  and  C10_15 
REMARK   38  A    between atoms: C7_12  and  C11_16 
REMARK   39  A    between atoms: C7_12  and  C15_20 
REMARK   40  A    between atoms: C8_13  and  C9_14 
REMARK   41  A    between atoms: C8_13  and  C10_15 
REMARK   42  A    between atoms: C8_13  and  C13_18 
REMARK   43  A    between atoms: C9_14  and  C10_15 
REMARK   44  A    between atoms: C9_14  and  C11_16 
REMARK   45  A    between atoms: C10_15  and  C14_19 
REMARK   46  A    between atoms: C10_15  and  C11_16 
REMARK   47  A    between atoms: C10_15  and  C12_17 
REMARK   48  A    between atoms: C10_15  and  C15_20 
REMARK   49  A    between atoms: C10_15  and  C16_21 
REMARK   50  A    between atoms: C10_15  and  C21_26 
REMARK   51  A    between atoms: C11_16  and  C16_21 
REMARK   52  A    between atoms: C11_16  and  C12_17 
REMARK   53  A    between atoms: C11_16  and  C22_27 
REMARK   54  A    between atoms: C11_16  and  C26_31 
REMARK   55  A    between atoms: C12_17  and  C15_20 
REMARK   56  A    between atoms: C12_17  and  C14_19 
REMARK   57  A    between atoms: C12_17  and  C21_26 
REMARK   58  A    between atoms: C14_19  and  C17_22 
REMARK   59  A    between atoms: C15_20  and  C16_21 
REMARK   60  A    between atoms: C15_20  and  C22_27 
REMARK   61  A    between atoms: C16_21  and  C21_26 
REMARK   62  A    between atoms: C16_21  and  C26_31 
REMARK   63  A    between atoms: C18_23  and  C20_25 
REMARK   64  A    between atoms: C20_25  and  C28_33 
REMARK   65  A    between atoms: C21_26  and  C22_27 
REMARK   66  A    between atoms: C22_27  and  C26_31 
REMARK   67  A    between atoms: C23_28  and  C24_29 
REMARK   68  A    between atoms: C27_32  and  C29_34 
ROOT
HETATM    1  O1  UNL     1     -37.047  14.104  49.871  1.00  0.00     0.000 OA
HETATM    2  O2  UNL     1     -38.607  15.394  49.340  1.00  0.00     0.000 OA
HETATM    3  O3  UNL     1     -40.344  13.949  48.375  1.00  0.00     0.000 OA
HETATM    4  O4  UNL     1     -35.341  13.106  50.504  1.00  0.00     0.000 OA
HETATM    5  N1  UNL     1     -39.301  11.731  48.555  1.00  0.00     0.000 N 
HETATM    6  C1  UNL     1     -38.634  12.912  49.006  1.00  0.00     0.000 A 
HETATM    7  C2  UNL     1     -37.976  13.275  49.348  1.00  0.00     0.000 A 
HETATM    8  C3  UNL     1     -38.616  14.547  49.226  1.00  0.00     0.000 A 
HETATM    9  C4  UNL     1     -37.968  14.093  49.457  1.00  0.00     0.000 A 
HETATM   10  C5  UNL     1     -39.274  14.185  48.885  1.00  0.00     0.000 A 
HETATM   11  C6  UNL     1     -39.283  13.367  48.775  1.00  0.00     0.000 A 
HETATM   12  C7  UNL     1     -38.643  12.095  48.896  1.00  0.00     0.000 A 
HETATM   13  C8  UNL     1     -38.923  13.559  48.961  1.00  0.00     0.000 A 
HETATM   14  C9  UNL     1     -38.387  13.902  49.245  1.00  0.00     0.000 A 
HETATM   15  C10 UNL     1     -37.986  12.458  49.237  1.00  0.00     0.000 A 
HETATM   16  C11 UNL     1     -37.328  12.822  49.579  1.00  0.00     0.000 A 
HETATM   17  C12 UNL     1     -37.995  11.641  49.127  1.00  0.00     0.000 A 
HETATM   18  C13 UNL     1     -39.945  14.655  48.645  1.00  0.00     0.000 A 
HETATM   19  C14 UNL     1     -38.714  11.150  48.742  1.00  0.00     0.000 A 
HETATM   20  C15 UNL     1     -37.337  12.003  49.469  1.00  0.00     0.000 A 
HETATM   21  C16 UNL     1     -36.671  13.184  49.920  1.00  0.00     0.000 A 
HETATM   22  C17 UNL     1     -40.078  11.861  48.224  1.00  0.00     0.000 A 
HETATM   23  C18 UNL     1     -40.617  15.126  48.406  1.00  0.00     0.000 A 
HETATM   24  C19 UNL     1     -40.534  11.198  47.934  1.00  0.00     0.000 A 
HETATM   25  C20 UNL     1     -39.546  15.362  48.915  1.00  0.00     0.000 A 
HETATM   26  C21 UNL     1     -36.689  11.549  49.700  1.00  0.00     0.000 A 
HETATM   27  C22 UNL     1     -36.022  12.730  50.151  1.00  0.00     0.000 A 
HETATM   28  C23 UNL     1     -40.612  10.359  47.790  1.00  0.00     0.000 A 
HETATM   29  C24 UNL     1     -41.247  10.890  47.575  1.00  0.00     0.000 A 
HETATM   30  C25 UNL     1     -37.925  15.771  49.694  1.00  0.00     0.000 A 
HETATM   31  C26 UNL     1     -36.031  11.913  50.041  1.00  0.00     0.000 A 
HETATM   32  C27 UNL     1     -41.289  15.597  48.166  1.00  0.00     0.000 A 
HETATM   33  C28 UNL     1     -40.219  15.833  48.676  1.00  0.00     0.000 A 
HETATM   34  C29 UNL     1     -41.016  14.420  48.136  1.00  0.00     0.000 A 
ENDROOT
TORSDOF 68
ENDMDL
