MODEL 1
REMARK VINA RESULT:     145.5      0.000      0.000
REMARK WARNING: 32 MAX_TORS EXCEEDED!!!
REMARK  34 active torsions:
REMARK  status: ('A' for Active; 'I' for Inactive)
REMARK    1  A    between atoms: CL1_1  and  CL3_3 
REMARK    2  A    between atoms: CL1_1  and  C1_5 
REMARK    3  A    between atoms: CL1_1  and  C2_6 
REMARK    4  A    between atoms: CL1_1  and  C6_10 
REMARK    5  A    between atoms: CL2_2  and  C1_5 
REMARK    6  A    between atoms: CL2_2  and  C3_7 
REMARK    7  A    between atoms: CL3_3  and  C1_5 
REMARK    8  A    between atoms: CL3_3  and  C4_8 
REMARK    9  A    between atoms: CL4_4  and  C10_14 
REMARK   10  A    between atoms: C1_5  and  C4_8 
REMARK   11  A    between atoms: C1_5  and  C7_11 
REMARK   12  A    between atoms: C2_6  and  C4_8 
REMARK   13  A    between atoms: C2_6  and  C8_12 
REMARK   14  A    between atoms: C2_6  and  C13_17 
REMARK   15  A    between atoms: C3_7  and  C4_8 
REMARK   16  A    between atoms: C3_7  and  C5_9 
REMARK   17  A    between atoms: C3_7  and  C11_15 
REMARK   18  A    between atoms: C3_7  and  C14_18 
REMARK   19  A    between atoms: C4_8  and  C6_10 
REMARK   20  A    between atoms: C4_8  and  C7_11 
REMARK   21  A    between atoms: C5_9  and  C6_10 
REMARK   22  A    between atoms: C5_9  and  C8_12 
REMARK   23  A    between atoms: C5_9  and  C10_14 
REMARK   24  A    between atoms: C5_9  and  C13_17 
REMARK   25  A    between atoms: C6_10  and  C9_13 
REMARK   26  A    between atoms: C6_10  and  C13_17 
REMARK   27  A    between atoms: C7_11  and  C8_12 
REMARK   28  A    between atoms: C7_11  and  C12_16 
REMARK   29  A    between atoms: C8_12  and  C11_15 
REMARK   30  A    between atoms: C8_12  and  C14_18 
REMARK   31  A    between atoms: C9_13  and  C10_14 
REMARK   32  A    between atoms: C10_14  and  C13_17 
REMARK   33  A    between atoms: C11_15  and  C12_16 
REMARK   34  A    between atoms: C12_16  and  C14_18 
ROOT
HETATM    1 CL1  UNL     1     -41.010  12.809  47.579  1.00  0.00    -0.253 Cl
HETATM    2 CL2  UNL     1     -41.087  14.237  47.557  1.00  0.00    -0.251 Cl
HETATM    3 CL3  UNL     1     -41.153  14.954  47.957  1.00  0.00    -0.256 Cl
HETATM    4 CL4  UNL     1     -41.087  10.704  50.493  1.00  0.00    -0.243 Cl
HETATM    5  C1  UNL     1     -41.131  13.538  48.802  1.00  0.00     0.069 A 
HETATM    6  C2  UNL     1     -41.120  12.829  49.224  1.00  0.00     0.081 A 
HETATM    7  C3  UNL     1     -41.197  14.255  49.202  1.00  0.00     0.066 A 
HETATM    8  C4  UNL     1     -41.076  13.528  47.979  1.00  0.00     0.079 A 
HETATM    9  C5  UNL     1     -41.175  12.839  50.048  1.00  0.00     0.082 A 
HETATM   10  C6  UNL     1     -41.054  12.111  48.824  1.00  0.00     0.085 A 
HETATM   11  C7  UNL     1     -41.208  14.964  48.781  1.00  0.00     0.066 A 
HETATM   12  C8  UNL     1     -41.251  14.266  50.025  1.00  0.00     0.072 A 
HETATM   13  C9  UNL     1     -41.164  12.131  50.470  1.00  0.00     0.079 A 
HETATM   14  C10 UNL     1     -41.043  11.403  49.247  1.00  0.00     0.079 A 
HETATM   15  C11 UNL     1     -41.273  15.682  49.181  1.00  0.00     0.059 A 
HETATM   16  C12 UNL     1     -41.317  14.984  50.426  1.00  0.00     0.055 A 
HETATM   17  C13 UNL     1     -41.098  11.412  50.070  1.00  0.00     0.079 A 
HETATM   18  C14 UNL     1     -41.328  15.692  50.004  1.00  0.00     0.055 A 
ENDROOT
TORSDOF 34
ENDMDL
