MODEL 1
REMARK VINA RESULT:     121.0      0.000      0.000
REMARK  16 active torsions:
REMARK  status: ('A' for Active; 'I' for Inactive)
REMARK    1  A    between atoms: O1_1  and  C5_11 
REMARK    2  A    between atoms: O3_3  and  C3_9 
REMARK    3  A    between atoms: O4_4  and  C8_14 
REMARK    4  A    between atoms: N1_5  and  N2_6 
REMARK    5  A    between atoms: N2_6  and  C8_14 
REMARK    6  A    between atoms: C1_7  and  C4_10 
REMARK    7  A    between atoms: C1_7  and  C7_13 
REMARK    8  A    between atoms: C2_8  and  C3_9 
REMARK    9  A    between atoms: C3_9  and  C4_10 
REMARK   10  A    between atoms: C4_10  and  C5_11 
REMARK   11  A    between atoms: C6_12  and  C7_13 
REMARK   12  A    between atoms: C6_12  and  C9_15 
REMARK   13  A    between atoms: C7_13  and  C8_14 
REMARK   14  A    between atoms: C7_13  and  C9_15 
REMARK   15  A    between atoms: C8_14  and  C9_15 
REMARK   16  A    between atoms: C9_15  and  C10_16 
ROOT
HETATM    1  O1  UNL     1     -37.793  15.080  49.427  1.00  0.00     0.000 OA
HETATM    2  O2  UNL     1     -36.005  15.774  50.520  1.00  0.00    -0.359 OA
HETATM    3  O3  UNL     1     -40.036  15.718  50.250  1.00  0.00     0.000 OA
HETATM    4  O4  UNL     1     -41.327  14.302  48.130  1.00  0.00     0.000 OA
HETATM    5  N1  UNL     1     -39.255  15.023  49.276  1.00  0.00     0.000 N 
HETATM    6  N2  UNL     1     -40.682  15.010  49.189  1.00  0.00     0.000 N 
HETATM    7  C1  UNL     1     -38.564  15.264  49.658  1.00  0.00     0.028 A 
HETATM    8  C2  UNL     1     -37.276  15.432  49.964  1.00  0.00     0.100 A 
HETATM    9  C3  UNL     1     -38.523  15.729  50.337  1.00  0.00     0.032 A 
HETATM   10  C4  UNL     1     -37.727  15.833  50.526  1.00  0.00     0.055 A 
HETATM   11  C5  UNL     1     -36.453  15.392  49.943  1.00  0.00     0.140 A 
HETATM   12  C6  UNL     1     -39.211  14.556  48.597  1.00  0.00     0.002 A 
HETATM   13  C7  UNL     1     -39.991  15.250  49.571  1.00  0.00     0.002 A 
HETATM   14  C8  UNL     1     -39.901  14.316  48.215  1.00  0.00     0.000 A 
HETATM   15  C9  UNL     1     -40.636  14.543  48.512  1.00  0.00     0.000 A 
HETATM   16  C10 UNL     1     -39.856  13.848  47.537  1.00  0.00     0.000 A 
ENDROOT
TORSDOF 16
ENDMDL
