MODEL 1
REMARK VINA RESULT:     266.1      0.000      0.000
REMARK  23 active torsions:
REMARK  status: ('A' for Active; 'I' for Inactive)
REMARK    1  A    between atoms: O4_4  and  C3_9 
REMARK    2  A    between atoms: O4_4  and  C7_13 
REMARK    3  A    between atoms: N1_5  and  C3_9 
REMARK    4  A    between atoms: N1_5  and  C14_20 
REMARK    5  A    between atoms: C1_7  and  C4_10 
REMARK    6  A    between atoms: C1_7  and  C5_11 
REMARK    7  A    between atoms: C1_7  and  C6_12 
REMARK    8  A    between atoms: C2_8  and  C3_9 
REMARK    9  A    between atoms: C2_8  and  C5_11 
REMARK   10  A    between atoms: C3_9  and  C4_10 
REMARK   11  A    between atoms: C3_9  and  C6_12 
REMARK   12  A    between atoms: C3_9  and  C9_15 
REMARK   13  A    between atoms: C3_9  and  C11_17 
REMARK   14  A    between atoms: C4_10  and  C5_11 
REMARK   15  A    between atoms: C4_10  and  C10_16 
REMARK   16  A    between atoms: C5_11  and  C6_12 
REMARK   17  A    between atoms: C5_11  and  C7_13 
REMARK   18  A    between atoms: C5_11  and  C9_15 
REMARK   19  A    between atoms: C5_11  and  C10_16 
REMARK   20  A    between atoms: C8_14  and  C9_15 
REMARK   21  A    between atoms: C8_14  and  C13_19 
REMARK   22  A    between atoms: C9_15  and  C12_18 
REMARK   23  A    between atoms: C12_18  and  C13_19 
ROOT
HETATM    1  O1  UNL     1     -37.747  13.379  50.525  1.00  0.00     0.000 OA
HETATM    2  O2  UNL     1     -40.593  12.517  50.525  1.00  0.00     0.000 OA
HETATM    3  O3  UNL     1     -41.324  13.745  50.526  1.00  0.00    -0.362 OA
HETATM    4  O4  UNL     1     -37.038  13.801  50.525  1.00  0.00     0.000 OA
HETATM    5  N1  UNL     1     -37.768  15.029  50.526  1.00  0.00     0.000 N 
HETATM    6  N2  UNL     1     -39.209  15.836  50.526  1.00  0.00    -0.273 NA
HETATM    7  C1  UNL     1     -38.477  14.607  50.526  1.00  0.00     0.068 A 
HETATM    8  C2  UNL     1     -39.197  15.011  50.526  1.00  0.00     0.076 A 
HETATM    9  C3  UNL     1     -38.466  13.783  50.525  1.00  0.00     0.054 A 
HETATM   10  C4  UNL     1     -39.906  14.589  50.526  1.00  0.00     0.083 A 
HETATM   11  C5  UNL     1     -39.175  13.361  50.525  1.00  0.00     0.068 A 
HETATM   12  C6  UNL     1     -39.895  13.763  50.526  1.00  0.00     0.099 A 
HETATM   13  C7  UNL     1     -37.735  12.555  50.525  1.00  0.00     0.012 A 
HETATM   14  C8  UNL     1     -37.016  12.152  50.524  1.00  0.00     0.001 A 
HETATM   15  C9  UNL     1     -38.444  12.133  50.525  1.00  0.00     0.012 A 
HETATM   16  C10 UNL     1     -40.604  13.341  50.525  1.00  0.00     0.113 A 
HETATM   17  C11 UNL     1     -37.048  14.627  50.525  1.00  0.00     0.020 A 
HETATM   18  C12 UNL     1     -37.005  11.327  50.524  1.00  0.00     0.001 A 
HETATM   19  C13 UNL     1     -38.434  11.308  50.524  1.00  0.00     0.001 A 
HETATM   20  C14 UNL     1     -36.339  15.048  50.525  1.00  0.00     0.002 A 
HETATM   21  C15 UNL     1     -41.302  12.095  50.525  1.00  0.00     0.054 A 
HETATM   22  C16 UNL     1     -41.291  11.270  50.525  1.00  0.00    -0.028 A 
ENDROOT
TORSDOF 23
ENDMDL
