MODEL 1
REMARK VINA RESULT:     131.0      0.000      0.000
REMARK  20 active torsions:
REMARK  status: ('A' for Active; 'I' for Inactive)
REMARK    1  A    between atoms: O1_1  and  C6_14 
REMARK    2  A    between atoms: O1_1  and  C8_16 
REMARK    3  A    between atoms: O2_2  and  C1_9 
REMARK    4  A    between atoms: O4_4  and  N3_7 
REMARK    5  A    between atoms: N1_5  and  N4_8 
REMARK    6  A    between atoms: N1_5  and  C4_12 
REMARK    7  A    between atoms: N1_5  and  C5_13 
REMARK    8  A    between atoms: N2_6  and  N3_7 
REMARK    9  A    between atoms: N3_7  and  C7_15 
REMARK   10  A    between atoms: N3_7  and  C1_9 
REMARK   11  A    between atoms: N4_8  and  C6_14 
REMARK   12  A    between atoms: C1_9  and  C5_13 
REMARK   13  A    between atoms: C1_9  and  C7_15 
REMARK   14  A    between atoms: C2_10  and  C6_14 
REMARK   15  A    between atoms: C2_10  and  C8_16 
REMARK   16  A    between atoms: C3_11  and  C5_13 
REMARK   17  A    between atoms: C3_11  and  C6_14 
REMARK   18  A    between atoms: C5_13  and  C7_15 
REMARK   19  A    between atoms: C7_15  and  C9_17 
REMARK   20  A    between atoms: C7_15  and  C10_18 
ROOT
HETATM    1  O1  UNL     1     -36.452  15.835  49.104  1.00  0.00     0.000 OA
HETATM    2  O3  UNL     1     -35.473  15.802  50.431  1.00  0.00    -0.354 OA
HETATM    3  O4  UNL     1     -41.328  15.560  48.782  1.00  0.00     0.000 OA
HETATM    4  N1  UNL     1     -38.089  15.722  49.284  1.00  0.00     0.000 N 
HETATM    5  N2  UNL     1     -39.974  15.674  48.338  1.00  0.00     0.000 N 
HETATM    6  N4  UNL     1     -38.508  15.785  48.025  1.00  0.00     0.130 N 
HETATM    7  C1  UNL     1     -38.908  15.672  49.288  1.00  0.00     0.205 A 
HETATM    8  C2  UNL     1     -37.599  15.706  49.948  1.00  0.00     0.114 A 
HETATM    9  C3  UNL     1     -39.168  15.711  48.506  1.00  0.00     0.199 A 
HETATM   10  C4  UNL     1     -36.781  15.762  49.857  1.00  0.00     0.148 A 
HETATM   11  C6  UNL     1     -37.842  15.792  48.505  1.00  0.00     0.249 A 
HETATM   12  C7  UNL     1     -40.521  15.597  48.950  1.00  0.00     0.058 A 
HETATM   13  C8  UNL     1     -36.291  15.746  50.521  1.00  0.00     0.148 A 
HETATM   14  C9  UNL     1     -40.234  15.713  47.556  1.00  0.00     0.035 A 
ENDROOT
BRANCH   4  15
HETATM   15  C5  UNL     1     -39.454  15.596  49.902  1.00  0.00     0.059 A 
HETATM   16  O2  UNL     1     -39.227  15.095  50.516  1.00  0.00     0.000 OA
HETATM   17  N3  UNL     1     -40.241  15.833  49.832  1.00  0.00     0.000 N 
HETATM   18  C10 UNL     1     -40.801  15.568  50.377  1.00  0.00     0.007 A 
ENDBRANCH   4  15
TORSDOF 20
ENDMDL
