MODEL 1
REMARK VINA RESULT:     383.0      0.000      0.000
REMARK  29 active torsions:
REMARK  status: ('A' for Active; 'I' for Inactive)
REMARK    1  A    between atoms: O1_1  and  C10_12 
REMARK    2  A    between atoms: O1_1  and  C11_13 
REMARK    3  A    between atoms: O2_2  and  C17_19 
REMARK    4  A    between atoms: C1_3  and  C7_9 
REMARK    5  A    between atoms: C1_3  and  C9_11 
REMARK    6  A    between atoms: C2_4  and  C4_6 
REMARK    7  A    between atoms: C2_4  and  C7_9 
REMARK    8  A    between atoms: C2_4  and  C10_12 
REMARK    9  A    between atoms: C3_5  and  C5_7 
REMARK   10  A    between atoms: C3_5  and  C6_8 
REMARK   11  A    between atoms: C4_6  and  C5_7 
REMARK   12  A    between atoms: C4_6  and  C8_10 
REMARK   13  A    between atoms: C5_7  and  C7_9 
REMARK   14  A    between atoms: C5_7  and  C9_11 
REMARK   15  A    between atoms: C5_7  and  C11_13 
REMARK   16  A    between atoms: C6_8  and  C9_11 
REMARK   17  A    between atoms: C7_9  and  C11_13 
REMARK   18  A    between atoms: C7_9  and  C12_14 
REMARK   19  A    between atoms: C8_10  and  C14_16 
REMARK   20  A    between atoms: C9_11  and  C10_12 
REMARK   21  A    between atoms: C9_11  and  C11_13 
REMARK   22  A    between atoms: C12_14  and  C13_15 
REMARK   23  A    between atoms: C13_15  and  C14_16 
REMARK   24  A    between atoms: C13_15  and  C16_18 
REMARK   25  A    between atoms: C14_16  and  C15_17 
REMARK   26  A    between atoms: C14_16  and  C18_20 
REMARK   27  A    between atoms: C15_17  and  C18_20 
REMARK   28  A    between atoms: C16_18  and  C17_19 
REMARK   29  A    between atoms: C17_19  and  C18_20 
ROOT
HETATM    1  O1  UNL     1     -41.269  11.882  47.750  1.00  0.00     0.000 OA
HETATM    2  O2  UNL     1     -35.368  11.414  50.521  1.00  0.00     0.000 OA
HETATM    3  C1  UNL     1     -39.635  12.697  48.847  1.00  0.00     0.000 A 
HETATM    4  C2  UNL     1     -39.995  12.070  48.449  1.00  0.00     0.000 A 
HETATM    5  C3  UNL     1     -38.889  12.597  49.183  1.00  0.00     0.000 A 
HETATM    6  C4  UNL     1     -38.501  11.871  49.123  1.00  0.00     0.000 A 
HETATM    7  C5  UNL     1     -39.608  11.344  48.388  1.00  0.00     0.000 A 
HETATM    8  C6  UNL     1     -40.145  13.338  48.818  1.00  0.00     0.000 A 
HETATM    9  C7  UNL     1     -38.861  11.244  48.725  1.00  0.00     0.000 A 
HETATM   10  C8  UNL     1     -38.524  13.257  49.595  1.00  0.00     0.000 A 
HETATM   11  C9  UNL     1     -40.724  12.330  48.178  1.00  0.00     0.000 A 
HETATM   12  C10 UNL     1     -40.816  13.112  48.405  1.00  0.00     0.000 A 
HETATM   13  C11 UNL     1     -40.354  11.443  48.052  1.00  0.00     0.000 C 
HETATM   14  C12 UNL     1     -37.724  11.756  49.469  1.00  0.00     0.000 A 
HETATM   15  C13 UNL     1     -37.746  13.161  49.948  1.00  0.00     0.000 A 
HETATM   16  C14 UNL     1     -37.344  12.404  49.884  1.00  0.00     0.000 A 
HETATM   17  C15 UNL     1     -37.320  10.960  49.392  1.00  0.00     0.000 A 
HETATM   18  C16 UNL     1     -36.535  12.303  50.251  1.00  0.00     0.000 A 
HETATM   19  C17 UNL     1     -36.510  10.839  49.752  1.00  0.00     0.000 A 
HETATM   20  C18 UNL     1     -36.115  11.516  50.185  1.00  0.00     0.000 A 
ENDROOT
TORSDOF 29
ENDMDL
