MODEL 1
REMARK VINA RESULT:      60.3      0.000      0.000
REMARK  8 active torsions:
REMARK  status: ('A' for Active; 'I' for Inactive)
REMARK    1  A    between atoms: N1_1  and  C9_10 
REMARK    2  A    between atoms: C1_2  and  C10_11 
REMARK    3  A    between atoms: C4_5  and  C11_12 
REMARK    4  A    between atoms: C6_7  and  C7_8 
REMARK    5  A    between atoms: C8_9  and  C9_10 
REMARK    6  A    between atoms: C8_9  and  C10_11 
REMARK    7  A    between atoms: C9_10  and  C10_11 
REMARK    8  A    between atoms: C10_11  and  C11_12 
ROOT
HETATM    1  N1  UNL     1     -38.636  15.623  50.171  1.00  0.00     0.000 N 
HETATM    2  C1  UNL     1     -38.598  15.753  48.839  1.00  0.00     0.005 A 
HETATM    3  C2  UNL     1     -38.670  15.682  49.503  1.00  0.00     0.003 A 
HETATM    4  C3  UNL     1     -40.414  15.536  48.817  1.00  0.00     0.015 A 
HETATM    5  C4  UNL     1     -39.996  15.537  49.343  1.00  0.00     0.011 A 
HETATM    6  C5  UNL     1     -40.229  15.634  48.019  1.00  0.00    -0.053 A 
HETATM    7  C6  UNL     1     -41.328  15.337  49.766  1.00  0.00     0.007 A 
HETATM    8  C7  UNL     1     -40.909  15.337  50.292  1.00  0.00     0.007 A 
HETATM    9  C8  UNL     1     -38.423  15.835  48.195  1.00  0.00     0.001 A 
HETATM   10  C9  UNL     1     -37.932  15.836  48.814  1.00  0.00     0.001 A 
HETATM   11  C10 UNL     1     -38.025  15.743  49.685  1.00  0.00     0.001 A 
HETATM   12  C11 UNL     1     -39.198  15.522  50.527  1.00  0.00     0.003 A 
ENDROOT
TORSDOF 8
ENDMDL
