MODEL 1
REMARK VINA RESULT:      60.8      0.000      0.000
REMARK  4 active torsions:
REMARK  status: ('A' for Active; 'I' for Inactive)
REMARK    1  A    between atoms: O3_4  and  C1_7 
REMARK    2  A    between atoms: O3_4  and  C2_8 
REMARK    3  A    between atoms: N1_6  and  C5_11 
REMARK    4  A    between atoms: C2_8  and  C3_9 
ROOT
HETATM    1  S1  UNL     1     -40.491  15.570  49.704  1.00  0.00    -0.140 SA
HETATM    2  O1  UNL     1     -41.273  15.630  49.958  1.00  0.00     0.000 OA
HETATM    3  O2  UNL     1     -40.754  15.382  48.944  1.00  0.00     0.000 OA
HETATM    4  O3  UNL     1     -40.229  15.758  50.462  1.00  0.00     0.000 OA
HETATM    5  O4  UNL     1     -36.744  15.459  49.212  1.00  0.00     0.000 OA
HETATM    6  N1  UNL     1     -37.691  15.713  50.253  1.00  0.00     0.000 N 
HETATM    7  C1  UNL     1     -39.090  15.641  49.979  1.00  0.00     0.058 A 
HETATM    8  C2  UNL     1     -39.709  15.509  49.448  1.00  0.00     0.058 A 
HETATM    9  C3  UNL     1     -38.308  15.580  49.723  1.00  0.00     0.022 A 
HETATM   10  C4  UNL     1     -36.908  15.652  49.998  1.00  0.00     0.002 A 
HETATM   11  C5  UNL     1     -36.290  15.784  50.528  1.00  0.00     0.000 A 
ENDROOT
TORSDOF 4
ENDMDL
