MODEL 1
REMARK VINA RESULT:     179.0      0.000      0.000
REMARK  13 active torsions:
REMARK  status: ('A' for Active; 'I' for Inactive)
REMARK    1  A    between atoms: O1_1  and  N1_4 
REMARK    2  A    between atoms: O1_1  and  C3_7 
REMARK    3  A    between atoms: C2_6  and  C3_7 
REMARK    4  A    between atoms: C3_7  and  C6_10 
REMARK    5  A    between atoms: C5_9  and  C10_14 
REMARK    6  A    between atoms: C6_10  and  C7_11 
REMARK    7  A    between atoms: C6_10  and  C9_13 
REMARK    8  A    between atoms: C7_11  and  C8_12 
REMARK    9  A    between atoms: C7_11  and  C10_14 
REMARK   10  A    between atoms: C8_12  and  C9_13 
REMARK   11  A    between atoms: C9_13  and  C10_14 
REMARK   12  A    between atoms: C10_14  and  C11_15 
REMARK   13  A    between atoms: C10_14  and  C12_16 
ROOT
HETATM    1  O1  UNL     1     -40.197  14.473  50.053  1.00  0.00     0.000 OA
HETATM    2  O2  UNL     1     -38.033  14.073  50.238  1.00  0.00     0.000 OA
HETATM    3  O3  UNL     1     -41.312  15.418  49.891  1.00  0.00    -0.267 OA
HETATM    4  N1  UNL     1     -39.885  15.767  49.959  1.00  0.00     0.202 N 
HETATM    5  C1  UNL     1     -39.376  14.542  50.103  1.00  0.00     0.312 A 
HETATM    6  C2  UNL     1     -39.184  15.342  50.045  1.00  0.00     0.312 A 
HETATM    7  C3  UNL     1     -38.842  13.920  50.195  1.00  0.00     0.077 A 
HETATM    8  C4  UNL     1     -40.511  15.230  49.963  1.00  0.00     0.353 A 
HETATM    9  C5  UNL     1     -37.499  13.451  50.330  1.00  0.00     0.004 A 
HETATM   10  C6  UNL     1     -37.774  12.676  50.380  1.00  0.00     0.004 A 
HETATM   11  C7  UNL     1     -36.690  13.605  50.372  1.00  0.00     0.000 A 
HETATM   12  C8  UNL     1     -37.240  12.054  50.472  1.00  0.00     0.000 A 
HETATM   13  C9  UNL     1     -36.156  12.983  50.464  1.00  0.00     0.000 A 
HETATM   14  C10 UNL     1     -36.431  12.207  50.514  1.00  0.00     0.000 A 
HETATM   15  C11 UNL     1     -37.515  11.277  50.523  1.00  0.00     0.000 A 
HETATM   16  C12 UNL     1     -35.346  13.137  50.506  1.00  0.00     0.000 A 
ENDROOT
TORSDOF 13
ENDMDL
MODEL 2
REMARK VINA RESULT:     181.7      1.819      4.345
REMARK  13 active torsions:
REMARK  status: ('A' for Active; 'I' for Inactive)
REMARK    1  A    between atoms: O1_1  and  N1_4 
REMARK    2  A    between atoms: O1_1  and  C3_7 
REMARK    3  A    between atoms: C2_6  and  C3_7 
REMARK    4  A    between atoms: C3_7  and  C6_10 
REMARK    5  A    between atoms: C5_9  and  C10_14 
REMARK    6  A    between atoms: C6_10  and  C7_11 
REMARK    7  A    between atoms: C6_10  and  C9_13 
REMARK    8  A    between atoms: C7_11  and  C8_12 
REMARK    9  A    between atoms: C7_11  and  C10_14 
REMARK   10  A    between atoms: C8_12  and  C9_13 
REMARK   11  A    between atoms: C9_13  and  C10_14 
REMARK   12  A    between atoms: C10_14  and  C11_15 
REMARK   13  A    between atoms: C10_14  and  C12_16 
ROOT
HETATM    1  O1  UNL     1     -37.068  14.089  50.338  1.00  0.00     0.000 OA
HETATM    2  O2  UNL     1     -38.684  14.805  49.013  1.00  0.00     0.000 OA
HETATM    3  O3  UNL     1     -35.740  13.486  50.520  1.00  0.00    -0.267 OA
HETATM    4  N1  UNL     1     -36.394  13.765  49.233  1.00  0.00     0.202 N 
HETATM    5  C1  UNL     1     -37.533  14.291  49.686  1.00  0.00     0.312 A 
HETATM    6  C2  UNL     1     -37.116  14.090  49.004  1.00  0.00     0.312 A 
HETATM    7  C3  UNL     1     -38.283  14.633  49.713  1.00  0.00     0.077 A 
HETATM    8  C4  UNL     1     -36.364  13.764  50.057  1.00  0.00     0.353 A 
HETATM    9  C5  UNL     1     -39.434  15.147  49.040  1.00  0.00     0.004 A 
HETATM   10  C6  UNL     1     -39.784  15.317  49.767  1.00  0.00     0.004 A 
HETATM   11  C7  UNL     1     -39.834  15.318  48.340  1.00  0.00     0.000 A 
HETATM   12  C8  UNL     1     -40.534  15.659  49.794  1.00  0.00     0.000 A 
HETATM   13  C9  UNL     1     -40.585  15.661  48.367  1.00  0.00     0.000 A 
HETATM   14  C10 UNL     1     -40.935  15.831  49.094  1.00  0.00     0.000 A 
HETATM   15  C11 UNL     1     -40.884  15.829  50.522  1.00  0.00     0.000 A 
HETATM   16  C12 UNL     1     -40.986  15.833  47.666  1.00  0.00     0.000 A 
ENDROOT
TORSDOF 13
ENDMDL
