MODEL 1
REMARK VINA RESULT:     311.3      0.000      0.000
REMARK  25 active torsions:
REMARK  status: ('A' for Active; 'I' for Inactive)
REMARK    1  A    between atoms: S1_1  and  N2_6 
REMARK    2  A    between atoms: O1_2  and  C2_10 
REMARK    3  A    between atoms: O2_3  and  N2_6 
REMARK    4  A    between atoms: O2_3  and  C1_9 
REMARK    5  A    between atoms: O2_3  and  C3_11 
REMARK    6  A    between atoms: O2_3  and  C4_12 
REMARK    7  A    between atoms: O3_4  and  C4_12 
REMARK    8  A    between atoms: N1_5  and  C8_16 
REMARK    9  A    between atoms: N2_6  and  C8_16 
REMARK   10  A    between atoms: N2_6  and  C10_18 
REMARK   11  A    between atoms: N3_7  and  C7_15 
REMARK   12  A    between atoms: N4_8  and  C4_12 
REMARK   13  A    between atoms: N4_8  and  C9_17 
REMARK   14  A    between atoms: C1_9  and  C5_13 
REMARK   15  A    between atoms: C2_10  and  C3_11 
REMARK   16  A    between atoms: C2_10  and  C5_13 
REMARK   17  A    between atoms: C2_10  and  C7_15 
REMARK   18  A    between atoms: C3_11  and  C5_13 
REMARK   19  A    between atoms: C3_11  and  C6_14 
REMARK   20  A    between atoms: C4_12  and  C8_16 
REMARK   21  A    between atoms: C4_12  and  C10_18 
REMARK   22  A    between atoms: C5_13  and  C7_15 
REMARK   23  A    between atoms: C6_14  and  C7_15 
REMARK   24  A    between atoms: C8_16  and  C9_17 
REMARK   25  A    between atoms: C9_17  and  C10_18 
ROOT
HETATM    1  S1  UNL     1     -38.357  12.947  49.387  1.00  0.00    -0.201 SA
HETATM    2  O1  UNL     1     -38.750  12.308  49.043  1.00  0.00     0.000 OA
HETATM    3  O2  UNL     1     -37.964  13.585  49.732  1.00  0.00     0.000 OA
HETATM    4  N1  UNL     1     -39.077  13.337  49.486  1.00  0.00     0.000 N 
HETATM    5  N2  UNL     1     -38.396  14.443  50.083  1.00  0.00     0.000 N 
HETATM    6  N3  UNL     1     -35.476  11.386  48.993  1.00  0.00    -0.273 NA
HETATM    7  C1  UNL     1     -37.637  12.556  49.289  1.00  0.00     0.066 A 
HETATM    8  C2  UNL     1     -37.616  11.809  48.941  1.00  0.00     0.066 A 
HETATM    9  C3  UNL     1     -36.936  12.913  49.538  1.00  0.00     0.066 A 
HETATM   10  C4  UNL     1     -39.096  14.084  49.833  1.00  0.00     0.025 A 
HETATM   11  C5  UNL     1     -36.196  11.776  49.092  1.00  0.00     0.074 A 
HETATM   12  C6  UNL     1     -36.896  11.418  48.843  1.00  0.00     0.074 A 
HETATM   13  C7  UNL     1     -36.216  12.523  49.439  1.00  0.00     0.074 A 
HETATM   14  C9  UNL     1     -38.415  15.191  50.431  1.00  0.00     0.009 A 
ENDROOT
BRANCH   4  15
HETATM   15  C8  UNL     1     -39.816  14.475  49.932  1.00  0.00     0.009 A 
HETATM   16  O3  UNL     1     -40.523  14.077  49.777  1.00  0.00     0.000 OA
HETATM   17  C11 UNL     1     -41.245  14.447  49.923  1.00  0.00     0.001 A 
HETATM   18  N4  UNL     1     -39.834  15.243  50.233  1.00  0.00     0.000 N 
HETATM   19  C10 UNL     1     -39.127  15.642  50.388  1.00  0.00     0.009 A 
ENDBRANCH   4  15
TORSDOF 25
ENDMDL
