MODEL 1
REMARK VINA RESULT:      73.0      0.000      0.000
REMARK  14 active torsions:
REMARK  status: ('A' for Active; 'I' for Inactive)
REMARK    1  A    between atoms: O1_1  and  C3_7 
REMARK    2  A    between atoms: O2_2  and  C8_12 
REMARK    3  A    between atoms: O3_3  and  C7_11 
REMARK    4  A    between atoms: C2_6  and  C3_7 
REMARK    5  A    between atoms: C2_6  and  C6_10 
REMARK    6  A    between atoms: C2_6  and  C8_12 
REMARK    7  A    between atoms: C3_7  and  C5_9 
REMARK    8  A    between atoms: C4_8  and  C5_9 
REMARK    9  A    between atoms: C4_8  and  C7_11 
REMARK   10  A    between atoms: C4_8  and  C8_12 
REMARK   11  A    between atoms: C5_9  and  C6_10 
REMARK   12  A    between atoms: C5_9  and  C8_12 
REMARK   13  A    between atoms: C6_10  and  C7_11 
REMARK   14  A    between atoms: C7_11  and  C8_12 
ROOT
HETATM    1  O1  UNL     1     -39.736  13.195  47.533  1.00  0.00     0.000 OA
HETATM    2  O2  UNL     1     -39.624  15.802  48.961  1.00  0.00     0.000 OA
HETATM    3  O3  UNL     1     -40.941  15.836  49.954  1.00  0.00     0.000 OA
HETATM    4  N1  UNL     1     -40.780  11.918  47.564  1.00  0.00    -0.255 NA
HETATM    5  C1  UNL     1     -40.394  13.212  48.029  1.00  0.00     0.056 A 
HETATM    6  C2  UNL     1     -40.531  13.868  48.511  1.00  0.00     0.026 A 
HETATM    7  C3  UNL     1     -40.917  12.574  48.045  1.00  0.00     0.076 A 
HETATM    8  C4  UNL     1     -40.009  14.507  48.496  1.00  0.00     0.016 A 
HETATM    9  C5  UNL     1     -41.190  13.886  49.008  1.00  0.00     0.026 A 
HETATM   10  C6  UNL     1     -40.146  15.163  48.977  1.00  0.00     0.007 A 
HETATM   11  C7  UNL     1     -41.327  14.542  49.489  1.00  0.00     0.007 A 
HETATM   12  C8  UNL     1     -40.804  15.180  49.473  1.00  0.00     0.007 A 
HETATM   13  C9  UNL     1     -41.302  11.279  47.579  1.00  0.00     0.034 A 
ENDROOT
TORSDOF 14
ENDMDL
MODEL 2
REMARK VINA RESULT:      75.5      2.651      3.434
REMARK  14 active torsions:
REMARK  status: ('A' for Active; 'I' for Inactive)
REMARK    1  A    between atoms: O1_1  and  C3_7 
REMARK    2  A    between atoms: O2_2  and  C8_12 
REMARK    3  A    between atoms: O3_3  and  C7_11 
REMARK    4  A    between atoms: C2_6  and  C3_7 
REMARK    5  A    between atoms: C2_6  and  C6_10 
REMARK    6  A    between atoms: C2_6  and  C8_12 
REMARK    7  A    between atoms: C3_7  and  C5_9 
REMARK    8  A    between atoms: C4_8  and  C5_9 
REMARK    9  A    between atoms: C4_8  and  C7_11 
REMARK   10  A    between atoms: C4_8  and  C8_12 
REMARK   11  A    between atoms: C5_9  and  C6_10 
REMARK   12  A    between atoms: C5_9  and  C8_12 
REMARK   13  A    between atoms: C6_10  and  C7_11 
REMARK   14  A    between atoms: C7_11  and  C8_12 
ROOT
HETATM    1  O1  UNL     1     -38.096  15.389  48.353  1.00  0.00     0.000 OA
HETATM    2  O2  UNL     1     -41.048  15.351  48.715  1.00  0.00     0.000 OA
HETATM    3  O3  UNL     1     -41.319  15.719  50.301  1.00  0.00     0.000 OA
HETATM    4  N1  UNL     1     -36.824  15.684  49.361  1.00  0.00    -0.255 NA
HETATM    5  C1  UNL     1     -38.232  15.572  49.145  1.00  0.00     0.056 A 
HETATM    6  C2  UNL     1     -39.004  15.609  49.434  1.00  0.00     0.026 A 
HETATM    7  C3  UNL     1     -37.596  15.720  49.650  1.00  0.00     0.076 A 
HETATM    8  C4  UNL     1     -39.640  15.462  48.931  1.00  0.00     0.016 A 
HETATM    9  C5  UNL     1     -39.139  15.793  50.227  1.00  0.00     0.026 A 
HETATM   10  C6  UNL     1     -40.412  15.498  49.220  1.00  0.00     0.007 A 
HETATM   11  C7  UNL     1     -39.911  15.830  50.516  1.00  0.00     0.007 A 
HETATM   12  C8  UNL     1     -40.547  15.682  50.012  1.00  0.00     0.007 A 
HETATM   13  C9  UNL     1     -36.187  15.831  49.864  1.00  0.00     0.034 A 
ENDROOT
TORSDOF 14
ENDMDL
