MODEL 1
REMARK VINA RESULT:     211.4      0.000      0.000
REMARK  16 active torsions:
REMARK  status: ('A' for Active; 'I' for Inactive)
REMARK    1  A    between atoms: CL1_1  and  C9_16 
REMARK    2  A    between atoms: O1_3  and  C6_13 
REMARK    3  A    between atoms: O2_4  and  O3_5 
REMARK    4  A    between atoms: O2_4  and  C2_9 
REMARK    5  A    between atoms: O2_4  and  C4_11 
REMARK    6  A    between atoms: O2_4  and  C5_12 
REMARK    7  A    between atoms: O3_5  and  N2_7 
REMARK    8  A    between atoms: N1_6  and  N2_7 
REMARK    9  A    between atoms: C2_9  and  C10_17 
REMARK   10  A    between atoms: C5_12  and  C6_13 
REMARK   11  A    between atoms: C5_12  and  C9_16 
REMARK   12  A    between atoms: C5_12  and  C10_17 
REMARK   13  A    between atoms: C6_13  and  C8_15 
REMARK   14  A    between atoms: C6_13  and  C10_17 
REMARK   15  A    between atoms: C8_15  and  C9_16 
REMARK   16  A    between atoms: C9_16  and  C10_17 
ROOT
HETATM    1 CL1  UNL     1     -35.498  10.434  50.516  1.00  0.00    -0.244 Cl
HETATM    2  S1  UNL     1     -36.922  13.411  50.524  1.00  0.00    -0.201 SA
HETATM    3  O1  UNL     1     -36.178  13.767  50.527  1.00  0.00     0.000 OA
HETATM    4  O2  UNL     1     -37.666  13.056  50.521  1.00  0.00     0.000 OA
HETATM    5  O3  UNL     1     -38.567  13.539  50.520  1.00  0.00     0.000 OA
HETATM    6  N1  UNL     1     -37.278  14.156  50.526  1.00  0.00     0.000 N 
HETATM    7  N2  UNL     1     -38.455  14.964  50.526  1.00  0.00     0.000 N 
HETATM    8  C1  UNL     1     -39.279  15.028  50.524  1.00  0.00     0.009 A 
HETATM    9  C2  UNL     1     -36.566  12.667  50.522  1.00  0.00     0.061 A 
HETATM   10  C3  UNL     1     -39.634  15.772  50.526  1.00  0.00     0.001 A 
HETATM   11  C4  UNL     1     -38.100  14.219  50.524  1.00  0.00     0.041 A 
HETATM   12  C5  UNL     1     -37.032  11.987  50.518  1.00  0.00     0.061 A 
HETATM   13  C6  UNL     1     -35.744  12.603  50.524  1.00  0.00     0.061 A 
HETATM   14  C7  UNL     1     -40.457  15.836  50.525  1.00  0.00     0.001 A 
HETATM   15  C8  UNL     1     -36.676  11.242  50.516  1.00  0.00     0.070 A 
HETATM   16  C9  UNL     1     -35.388  11.858  50.522  1.00  0.00     0.070 A 
HETATM   17  C10 UNL     1     -35.854  11.179  50.518  1.00  0.00     0.070 A 
ENDROOT
TORSDOF 16
ENDMDL
