MODEL 1
REMARK VINA RESULT:     238.4      0.000      0.000
REMARK WARNING: 32 MAX_TORS EXCEEDED!!!
REMARK  38 active torsions:
REMARK  status: ('A' for Active; 'I' for Inactive)
REMARK    1  A    between atoms: O1_1  and  C3_7 
REMARK    2  A    between atoms: O1_1  and  C6_10 
REMARK    3  A    between atoms: O1_1  and  C13_17 
REMARK    4  A    between atoms: O2_2  and  C12_16 
REMARK    5  A    between atoms: N1_4  and  C2_6 
REMARK    6  A    between atoms: N1_4  and  C9_13 
REMARK    7  A    between atoms: C1_5  and  C8_12 
REMARK    8  A    between atoms: C1_5  and  C10_14 
REMARK    9  A    between atoms: C2_6  and  C8_12 
REMARK   10  A    between atoms: C2_6  and  C10_14 
REMARK   11  A    between atoms: C2_6  and  C12_16 
REMARK   12  A    between atoms: C3_7  and  C7_11 
REMARK   13  A    between atoms: C3_7  and  C4_8 
REMARK   14  A    between atoms: C3_7  and  C6_10 
REMARK   15  A    between atoms: C3_7  and  C11_15 
REMARK   16  A    between atoms: C3_7  and  C13_17 
REMARK   17  A    between atoms: C3_7  and  C15_19 
REMARK   18  A    between atoms: C4_8  and  C5_9 
REMARK   19  A    between atoms: C4_8  and  C6_10 
REMARK   20  A    between atoms: C4_8  and  C10_14 
REMARK   21  A    between atoms: C4_8  and  C12_16 
REMARK   22  A    between atoms: C5_9  and  C6_10 
REMARK   23  A    between atoms: C5_9  and  C8_12 
REMARK   24  A    between atoms: C5_9  and  C12_16 
REMARK   25  A    between atoms: C6_10  and  C7_11 
REMARK   26  A    between atoms: C6_10  and  C10_14 
REMARK   27  A    between atoms: C7_11  and  C9_13 
REMARK   28  A    between atoms: C7_11  and  C14_18 
REMARK   29  A    between atoms: C7_11  and  C15_19 
REMARK   30  A    between atoms: C9_13  and  C11_15 
REMARK   31  A    between atoms: C9_13  and  C13_17 
REMARK   32  A    between atoms: C9_13  and  C15_19 
REMARK   33  A    between atoms: C10_14  and  C12_16 
REMARK   34  A    between atoms: C11_15  and  C14_18 
REMARK   35  A    between atoms: C11_15  and  C16_20 
REMARK   36  A    between atoms: C13_17  and  C14_18 
REMARK   37  A    between atoms: C14_18  and  C15_19 
REMARK   38  A    between atoms: C15_19  and  C17_21 
ROOT
HETATM    1  O1  UNL     1     -38.344  15.816  49.385  1.00  0.00     0.000 OA
HETATM    2  O2  UNL     1     -41.328  15.518  48.416  1.00  0.00     0.000 OA
HETATM    3  O3  UNL     1     -36.669  15.695  50.052  1.00  0.00     0.000 OA
HETATM    4  N1  UNL     1     -39.595  13.099  50.076  1.00  0.00     0.000 N 
HETATM    5  C1  UNL     1     -39.211  14.815  49.491  1.00  0.00     0.000 A 
HETATM    6  C2  UNL     1     -39.856  14.301  49.472  1.00  0.00     0.000 A 
HETATM    7  C3  UNL     1     -38.506  14.581  49.849  1.00  0.00     0.000 A 
HETATM    8  C4  UNL     1     -39.914  14.390  49.413  1.00  0.00     0.000 A 
HETATM    9  C5  UNL     1     -40.561  14.535  49.114  1.00  0.00     0.000 A 
HETATM   10  C6  UNL     1     -39.273  15.565  49.151  1.00  0.00     0.000 A 
HETATM   11  C7  UNL     1     -37.972  15.201  49.782  1.00  0.00     0.000 A 
HETATM   12  C8  UNL     1     -40.085  13.627  49.673  1.00  0.00     0.000 A 
HETATM   13  C9  UNL     1     -38.329  13.865  50.217  1.00  0.00     0.000 A 
HETATM   14  C10 UNL     1     -40.622  15.284  48.775  1.00  0.00     0.000 A 
HETATM   15  C11 UNL     1     -38.814  13.205  50.318  1.00  0.00     0.000 A 
HETATM   16  C12 UNL     1     -39.978  15.799  48.793  1.00  0.00     0.000 A 
HETATM   17  C13 UNL     1     -37.229  15.090  50.102  1.00  0.00     0.000 A 
HETATM   18  C14 UNL     1     -37.578  13.782  50.527  1.00  0.00     0.000 A 
HETATM   19  C15 UNL     1     -37.033  14.388  50.471  1.00  0.00     0.000 A 
HETATM   20  C16 UNL     1     -39.932  12.369  50.261  1.00  0.00     0.000 A 
HETATM   21  C17 UNL     1     -35.917  15.587  50.373  1.00  0.00     0.000 A 
ENDROOT
TORSDOF 38
ENDMDL
