MODEL 1
REMARK VINA RESULT:     147.7      0.000      0.000
REMARK  14 active torsions:
REMARK  status: ('A' for Active; 'I' for Inactive)
REMARK    1  A    between atoms: C1_3  and  C11_13 
REMARK    2  A    between atoms: C3_5  and  C14_16 
REMARK    3  A    between atoms: C4_6  and  C5_7 
REMARK    4  A    between atoms: C4_6  and  C8_10 
REMARK    5  A    between atoms: C5_7  and  C7_9 
REMARK    6  A    between atoms: C5_7  and  C11_13 
REMARK    7  A    between atoms: C7_9  and  C8_10 
REMARK    8  A    between atoms: C8_10  and  C11_13 
REMARK    9  A    between atoms: C9_11  and  C10_12 
REMARK   10  A    between atoms: C9_11  and  C13_15 
REMARK   11  A    between atoms: C10_12  and  C12_14 
REMARK   12  A    between atoms: C10_12  and  C14_16 
REMARK   13  A    between atoms: C12_14  and  C13_15 
REMARK   14  A    between atoms: C13_15  and  C14_16 
ROOT
HETATM    1  O1  UNL     1     -38.284  14.694  50.269  1.00  0.00     0.000 OA
HETATM    2  O2  UNL     1     -37.193  15.597  50.454  1.00  0.00    -0.368 OA
HETATM    3  C1  UNL     1     -39.615  15.198  50.142  1.00  0.00     0.002 A 
HETATM    4  C2  UNL     1     -38.808  15.331  50.246  1.00  0.00     0.023 A 
HETATM    5  C3  UNL     1     -36.954  14.190  50.396  1.00  0.00     0.067 A 
HETATM    6  C4  UNL     1     -40.139  15.836  50.119  1.00  0.00     0.002 A 
HETATM    7  C5  UNL     1     -39.899  14.427  50.061  1.00  0.00     0.002 A 
HETATM    8  C6  UNL     1     -37.477  14.827  50.373  1.00  0.00     0.092 A 
HETATM    9  C7  UNL     1     -40.946  15.702  50.015  1.00  0.00     0.000 A 
HETATM   10  C8  UNL     1     -40.707  14.295  49.957  1.00  0.00     0.000 A 
HETATM   11  C9  UNL     1     -37.237  13.419  50.314  1.00  0.00     0.045 A 
HETATM   12  C10 UNL     1     -36.146  14.323  50.500  1.00  0.00     0.045 A 
HETATM   13  C11 UNL     1     -41.230  14.932  49.934  1.00  0.00     0.000 A 
HETATM   14  C12 UNL     1     -36.714  12.782  50.337  1.00  0.00     0.030 A 
HETATM   15  C13 UNL     1     -35.622  13.686  50.523  1.00  0.00     0.030 A 
HETATM   16  C14 UNL     1     -35.907  12.916  50.441  1.00  0.00     0.030 A 
ENDROOT
TORSDOF 14
ENDMDL
