MODEL 1
REMARK VINA RESULT:      33.4      0.000      0.000
REMARK  9 active torsions:
REMARK  status: ('A' for Active; 'I' for Inactive)
REMARK    1  A    between atoms: P1_1  and  C4_9 
REMARK    2  A    between atoms: P1_1  and  C6_11 
REMARK    3  A    between atoms: F1_2  and  C2_7 
REMARK    4  A    between atoms: F1_2  and  C6_11 
REMARK    5  A    between atoms: O2_4  and  O3_5 
REMARK    6  A    between atoms: O3_5  and  C1_6 
REMARK    7  A    between atoms: O3_5  and  C4_9 
REMARK    8  A    between atoms: C3_8  and  C4_9 
REMARK    9  A    between atoms: C5_10  and  C6_11 
ROOT
HETATM    1  P1  UNL     1     -39.315  15.801  49.679  1.00  0.00     0.016 P 
HETATM    2  F1  UNL     1     -38.764  15.792  49.065  1.00  0.00    -0.459 F 
HETATM    3  O1  UNL     1     -39.929  15.784  49.128  1.00  0.00     0.000 OA
HETATM    4  O2  UNL     1     -38.702  15.818  50.230  1.00  0.00     0.000 OA
HETATM    5  O3  UNL     1     -39.867  15.809  50.293  1.00  0.00     0.000 OA
HETATM    6  C1  UNL     1     -40.713  15.782  49.383  1.00  0.00     0.043 A 
HETATM    7  C2  UNL     1     -37.918  15.819  49.975  1.00  0.00     0.136 A 
HETATM    8  C3  UNL     1     -41.327  15.765  48.832  1.00  0.00     0.013 A 
HETATM    9  C4  UNL     1     -40.884  15.799  50.190  1.00  0.00     0.043 A 
HETATM   10  C5  UNL     1     -37.304  15.837  50.526  1.00  0.00     0.072 A 
HETATM   11  C6  UNL     1     -37.747  15.803  49.168  1.00  0.00     0.136 A 
ENDROOT
TORSDOF 9
ENDMDL
