MODEL 1
REMARK VINA RESULT:     341.1      0.000      0.000
REMARK WARNING: 32 MAX_TORS EXCEEDED!!!
REMARK  35 active torsions:
REMARK  status: ('A' for Active; 'I' for Inactive)
REMARK    1  A    between atoms: S1_1  and  N2_4 
REMARK    2  A    between atoms: S1_1  and  C10_14 
REMARK    3  A    between atoms: S2_2  and  C19_23 
REMARK    4  A    between atoms: N1_3  and  C6_10 
REMARK    5  A    between atoms: N2_4  and  C11_15 
REMARK    6  A    between atoms: N2_4  and  C12_16 
REMARK    7  A    between atoms: C1_5  and  C6_10 
REMARK    8  A    between atoms: C1_5  and  C7_11 
REMARK    9  A    between atoms: C2_6  and  C3_7 
REMARK   10  A    between atoms: C2_6  and  C5_9 
REMARK   11  A    between atoms: C2_6  and  C7_11 
REMARK   12  A    between atoms: C3_7  and  C8_12 
REMARK   13  A    between atoms: C3_7  and  C10_14 
REMARK   14  A    between atoms: C3_7  and  C14_18 
REMARK   15  A    between atoms: C4_8  and  C5_9 
REMARK   16  A    between atoms: C5_9  and  C6_10 
REMARK   17  A    between atoms: C5_9  and  C8_12 
REMARK   18  A    between atoms: C7_11  and  C13_17 
REMARK   19  A    between atoms: C7_11  and  C14_18 
REMARK   20  A    between atoms: C9_13  and  C10_14 
REMARK   21  A    between atoms: C9_13  and  C12_16 
REMARK   22  A    between atoms: C9_13  and  C15_19 
REMARK   23  A    between atoms: C9_13  and  C17_21 
REMARK   24  A    between atoms: C10_14  and  C12_16 
REMARK   25  A    between atoms: C10_14  and  C11_15 
REMARK   26  A    between atoms: C10_14  and  C16_20 
REMARK   27  A    between atoms: C11_15  and  C13_17 
REMARK   28  A    between atoms: C12_16  and  C14_18 
REMARK   29  A    between atoms: C13_17  and  C19_23 
REMARK   30  A    between atoms: C14_18  and  C20_24 
REMARK   31  A    between atoms: C15_19  and  C17_21 
REMARK   32  A    between atoms: C16_20  and  C18_22 
REMARK   33  A    between atoms: C17_21  and  C19_23 
REMARK   34  A    between atoms: C18_22  and  C20_24 
REMARK   35  A    between atoms: C19_23  and  C21_25 
ROOT
HETATM    1  S1  UNL     1     -40.346  14.147  50.519  1.00  0.00    -0.230 SA
HETATM    2  S2  UNL     1     -40.397  10.790  50.523  1.00  0.00    -0.203 SA
HETATM    3  N1  UNL     1     -36.070  13.270  50.525  1.00  0.00     0.000 N 
HETATM    4  N2  UNL     1     -38.928  13.305  50.522  1.00  0.00     0.000 N 
HETATM    5  C1  UNL     1     -36.789  12.866  50.525  1.00  0.00     0.003 A 
HETATM    6  C2  UNL     1     -36.799  12.042  50.526  1.00  0.00     0.003 A 
HETATM    7  C3  UNL     1     -37.499  13.287  50.523  1.00  0.00     0.008 A 
HETATM    8  C4  UNL     1     -36.090  11.621  50.527  1.00  0.00     0.000 A 
HETATM    9  C5  UNL     1     -35.361  12.849  50.526  1.00  0.00     0.000 A 
HETATM   10  C6  UNL     1     -35.370  12.024  50.528  1.00  0.00     0.000 A 
HETATM   11  C7  UNL     1     -38.218  12.884  50.523  1.00  0.00     0.018 A 
HETATM   12  C8  UNL     1     -36.060  14.095  50.524  1.00  0.00     0.001 A 
HETATM   13  C9  UNL     1     -39.647  12.901  50.521  1.00  0.00     0.031 A 
HETATM   14  C10 UNL     1     -38.917  14.129  50.521  1.00  0.00     0.018 A 
HETATM   15  C11 UNL     1     -40.357  13.322  50.520  1.00  0.00     0.035 A 
HETATM   16  C12 UNL     1     -39.628  14.551  50.519  1.00  0.00     0.023 A 
HETATM   17  C13 UNL     1     -39.644  12.042  50.522  1.00  0.00     0.041 A 
HETATM   18  C14 UNL     1     -38.161  14.539  50.521  1.00  0.00     0.015 A 
HETATM   19  C15 UNL     1     -41.113  12.914  50.520  1.00  0.00     0.039 A 
HETATM   20  C16 UNL     1     -39.630  15.411  50.518  1.00  0.00     0.021 A 
HETATM   21  C17 UNL     1     -40.390  11.615  50.522  1.00  0.00     0.047 A 
HETATM   22  C18 UNL     1     -38.145  15.398  50.520  1.00  0.00     0.015 A 
HETATM   23  C19 UNL     1     -41.130  12.054  50.521  1.00  0.00     0.047 A 
HETATM   24  C20 UNL     1     -38.884  15.837  50.518  1.00  0.00     0.016 A 
HETATM   25  C21 UNL     1     -41.115  10.384  50.523  1.00  0.00     0.050 A 
ENDROOT
TORSDOF 35
ENDMDL
MODEL 2
REMARK VINA RESULT:     342.8      1.647      1.988
REMARK WARNING: 32 MAX_TORS EXCEEDED!!!
REMARK  35 active torsions:
REMARK  status: ('A' for Active; 'I' for Inactive)
REMARK    1  A    between atoms: S1_1  and  N2_4 
REMARK    2  A    between atoms: S1_1  and  C10_14 
REMARK    3  A    between atoms: S2_2  and  C19_23 
REMARK    4  A    between atoms: N1_3  and  C6_10 
REMARK    5  A    between atoms: N2_4  and  C11_15 
REMARK    6  A    between atoms: N2_4  and  C12_16 
REMARK    7  A    between atoms: C1_5  and  C6_10 
REMARK    8  A    between atoms: C1_5  and  C7_11 
REMARK    9  A    between atoms: C2_6  and  C3_7 
REMARK   10  A    between atoms: C2_6  and  C5_9 
REMARK   11  A    between atoms: C2_6  and  C7_11 
REMARK   12  A    between atoms: C3_7  and  C8_12 
REMARK   13  A    between atoms: C3_7  and  C10_14 
REMARK   14  A    between atoms: C3_7  and  C14_18 
REMARK   15  A    between atoms: C4_8  and  C5_9 
REMARK   16  A    between atoms: C5_9  and  C6_10 
REMARK   17  A    between atoms: C5_9  and  C8_12 
REMARK   18  A    between atoms: C7_11  and  C13_17 
REMARK   19  A    between atoms: C7_11  and  C14_18 
REMARK   20  A    between atoms: C9_13  and  C10_14 
REMARK   21  A    between atoms: C9_13  and  C12_16 
REMARK   22  A    between atoms: C9_13  and  C15_19 
REMARK   23  A    between atoms: C9_13  and  C17_21 
REMARK   24  A    between atoms: C10_14  and  C12_16 
REMARK   25  A    between atoms: C10_14  and  C11_15 
REMARK   26  A    between atoms: C10_14  and  C16_20 
REMARK   27  A    between atoms: C11_15  and  C13_17 
REMARK   28  A    between atoms: C12_16  and  C14_18 
REMARK   29  A    between atoms: C13_17  and  C19_23 
REMARK   30  A    between atoms: C14_18  and  C20_24 
REMARK   31  A    between atoms: C15_19  and  C17_21 
REMARK   32  A    between atoms: C16_20  and  C18_22 
REMARK   33  A    between atoms: C17_21  and  C19_23 
REMARK   34  A    between atoms: C18_22  and  C20_24 
REMARK   35  A    between atoms: C19_23  and  C21_25 
ROOT
HETATM    1  S1  UNL     1     -41.179  13.768  49.485  1.00  0.00    -0.230 SA
HETATM    2  S2  UNL     1     -39.390  11.236  48.195  1.00  0.00    -0.203 SA
HETATM    3  N1  UNL     1     -37.117  15.209  50.176  1.00  0.00     0.000 N 
HETATM    4  N2  UNL     1     -39.531  13.835  49.505  1.00  0.00     0.000 N 
HETATM    5  C1  UNL     1     -37.499  14.556  49.850  1.00  0.00     0.003 A 
HETATM    6  C2  UNL     1     -37.058  13.935  49.533  1.00  0.00     0.003 A 
HETATM    7  C3  UNL     1     -38.324  14.522  49.840  1.00  0.00     0.008 A 
HETATM    8  C4  UNL     1     -36.234  13.969  49.543  1.00  0.00     0.000 A 
HETATM    9  C5  UNL     1     -36.293  15.243  50.185  1.00  0.00     0.000 A 
HETATM   10  C6  UNL     1     -35.851  14.623  49.869  1.00  0.00     0.000 A 
HETATM   11  C7  UNL     1     -38.707  13.868  49.514  1.00  0.00     0.018 A 
HETATM   12  C8  UNL     1     -37.559  15.831  50.492  1.00  0.00     0.001 A 
HETATM   13  C9  UNL     1     -39.913  13.180  49.178  1.00  0.00     0.031 A 
HETATM   14  C10 UNL     1     -39.972  14.455  49.821  1.00  0.00     0.018 A 
HETATM   15  C11 UNL     1     -40.738  13.147  49.169  1.00  0.00     0.035 A 
HETATM   16  C12 UNL     1     -40.797  14.422  49.811  1.00  0.00     0.023 A 
HETATM   17  C13 UNL     1     -39.442  12.540  48.852  1.00  0.00     0.041 A 
HETATM   18  C14 UNL     1     -39.562  15.131  50.158  1.00  0.00     0.015 A 
HETATM   19  C15 UNL     1     -41.148  12.471  48.832  1.00  0.00     0.039 A 
HETATM   20  C16 UNL     1     -41.269  15.062  50.138  1.00  0.00     0.021 A 
HETATM   21  C17 UNL     1     -39.834  11.856  48.511  1.00  0.00     0.047 A 
HETATM   22  C18 UNL     1     -40.017  15.781  50.489  1.00  0.00     0.015 A 
HETATM   23  C19 UNL     1     -40.693  11.821  48.501  1.00  0.00     0.047 A 
HETATM   24  C20 UNL     1     -40.876  15.746  50.479  1.00  0.00     0.016 A 
HETATM   25  C21 UNL     1     -39.770  10.581  47.868  1.00  0.00     0.050 A 
ENDROOT
TORSDOF 35
ENDMDL
