MODEL 1
REMARK VINA RESULT:      87.0      0.000      0.000
REMARK  21 active torsions:
REMARK  status: ('A' for Active; 'I' for Inactive)
REMARK    1  A    between atoms: P1_1  and  O3_5 
REMARK    2  A    between atoms: P1_1  and  O6_8 
REMARK    3  A    between atoms: P1_1  and  C2_13 
REMARK    4  A    between atoms: P2_2  and  C1_12 
REMARK    5  A    between atoms: P2_2  and  O1_3 
REMARK    6  A    between atoms: P2_2  and  O5_7 
REMARK    7  A    between atoms: P2_2  and  O7_9 
REMARK    8  A    between atoms: P2_2  and  C2_13 
REMARK    9  A    between atoms: O1_3  and  O5_7 
REMARK   10  A    between atoms: O1_3  and  N1_10 
REMARK   11  A    between atoms: O1_3  and  C2_13 
REMARK   12  A    between atoms: O1_3  and  C3_14 
REMARK   13  A    between atoms: O3_5  and  C1_12 
REMARK   14  A    between atoms: O3_5  and  C2_13 
REMARK   15  A    between atoms: O6_8  and  O7_9 
REMARK   16  A    between atoms: O6_8  and  C1_12 
REMARK   17  A    between atoms: O7_9  and  C1_12 
REMARK   18  A    between atoms: N1_10  and  C5_16 
REMARK   19  A    between atoms: N2_11  and  C3_14 
REMARK   20  A    between atoms: C3_14  and  C5_16 
REMARK   21  A    between atoms: C3_14  and  C4_15 
ROOT
HETATM    1  P1  UNL     1     -41.061  14.577  49.715  1.00  0.00    -0.049 P 
HETATM    2  P2  UNL     1     -40.982  14.920  48.602  1.00  0.00    -0.049 P 
HETATM    3  O1  UNL     1     -41.167  13.469  49.366  1.00  0.00     0.000 OA
HETATM    4  O2  UNL     1     -40.889  15.646  48.220  1.00  0.00     0.000 OA
HETATM    5  O3  UNL     1     -40.995  14.537  47.872  1.00  0.00     0.000 OA
HETATM    6  O4  UNL     1     -41.048  14.961  50.445  1.00  0.00     0.000 OA
HETATM    7  O5  UNL     1     -41.154  13.852  50.096  1.00  0.00     0.000 OA
HETATM    8  O6  UNL     1     -40.912  15.679  48.917  1.00  0.00     0.000 OA
HETATM    9  O7  UNL     1     -40.981  15.380  49.892  1.00  0.00     0.000 OA
HETATM   10  N1  UNL     1     -41.174  12.992  48.219  1.00  0.00     0.000 N 
HETATM   11  N2  UNL     1     -41.291  11.746  47.755  1.00  0.00     0.141 N 
HETATM   12  C1  UNL     1     -41.074  14.195  48.985  1.00  0.00     0.054 A 
HETATM   13  C2  UNL     1     -41.088  13.811  48.254  1.00  0.00     0.096 A 
HETATM   14  C3  UNL     1     -41.254  12.485  48.865  1.00  0.00     0.262 A 
HETATM   15  C4  UNL     1     -41.197  12.535  47.533  1.00  0.00     0.262 A 
HETATM   16  C5  UNL     1     -41.326  11.715  48.577  1.00  0.00     0.283 A 
ENDROOT
TORSDOF 21
ENDMDL
