MODEL 1
REMARK VINA RESULT:     474.2      0.000      0.000
REMARK WARNING: 32 MAX_TORS EXCEEDED!!!
REMARK  48 active torsions:
REMARK  status: ('A' for Active; 'I' for Inactive)
REMARK    1  A    between atoms: F1_1  and  C6_12 
REMARK    2  A    between atoms: F1_1  and  C15_21 
REMARK    3  A    between atoms: F1_1  and  C16_22 
REMARK    4  A    between atoms: O1_2  and  C6_12 
REMARK    5  A    between atoms: O1_2  and  C12_18 
REMARK    6  A    between atoms: O2_3  and  C6_12 
REMARK    7  A    between atoms: O2_3  and  C15_21 
REMARK    8  A    between atoms: O2_3  and  C16_22 
REMARK    9  A    between atoms: O3_4  and  C21_27 
REMARK   10  A    between atoms: O5_6  and  C19_25 
REMARK   11  A    between atoms: C1_7  and  C4_10 
REMARK   12  A    between atoms: C1_7  and  C8_14 
REMARK   13  A    between atoms: C1_7  and  C17_23 
REMARK   14  A    between atoms: C2_8  and  C4_10 
REMARK   15  A    between atoms: C2_8  and  C8_14 
REMARK   16  A    between atoms: C2_8  and  C10_16 
REMARK   17  A    between atoms: C3_9  and  C4_10 
REMARK   18  A    between atoms: C3_9  and  C6_12 
REMARK   19  A    between atoms: C3_9  and  C7_13 
REMARK   20  A    between atoms: C3_9  and  C8_14 
REMARK   21  A    between atoms: C3_9  and  C9_15 
REMARK   22  A    between atoms: C4_10  and  C6_12 
REMARK   23  A    between atoms: C4_10  and  C11_17 
REMARK   24  A    between atoms: C5_11  and  C6_12 
REMARK   25  A    between atoms: C5_11  and  C9_15 
REMARK   26  A    between atoms: C5_11  and  C12_18 
REMARK   27  A    between atoms: C5_11  and  C21_27 
REMARK   28  A    between atoms: C6_12  and  C8_14 
REMARK   29  A    between atoms: C6_12  and  C12_18 
REMARK   30  A    between atoms: C7_13  and  C8_14 
REMARK   31  A    between atoms: C7_13  and  C14_20 
REMARK   32  A    between atoms: C8_14  and  C12_18 
REMARK   33  A    between atoms: C8_14  and  C16_22 
REMARK   34  A    between atoms: C9_15  and  C10_16 
REMARK   35  A    between atoms: C10_16  and  C17_23 
REMARK   36  A    between atoms: C10_16  and  C21_27 
REMARK   37  A    between atoms: C11_17  and  C13_19 
REMARK   38  A    between atoms: C12_18  and  C17_23 
REMARK   39  A    between atoms: C13_19  and  C14_20 
REMARK   40  A    between atoms: C13_19  and  C15_21 
REMARK   41  A    between atoms: C13_19  and  C16_22 
REMARK   42  A    between atoms: C13_19  and  C20_26 
REMARK   43  A    between atoms: C14_20  and  C19_25 
REMARK   44  A    between atoms: C15_21  and  C16_22 
REMARK   45  A    between atoms: C15_21  and  C20_26 
REMARK   46  A    between atoms: C16_22  and  C18_24 
REMARK   47  A    between atoms: C18_24  and  C19_25 
REMARK   48  A    between atoms: C19_25  and  C20_26 
ROOT
HETATM    1  F1  UNL     1     -38.528  14.012  49.483  1.00  0.00    -0.622 F 
HETATM    2  O2  UNL     1     -38.276  14.338  49.964  1.00  0.00     0.000 OA
HETATM    3  O5  UNL     1     -41.321  15.349  48.062  1.00  0.00     0.000 OA
HETATM    4  C4  UNL     1     -38.597  13.399  48.935  1.00  0.00     0.029 A 
HETATM    5  C7  UNL     1     -39.272  13.884  48.720  1.00  0.00     0.026 A 
HETATM    6  C8  UNL     1     -38.111  13.640  49.558  1.00  0.00     0.031 A 
HETATM    7  C13 UNL     1     -39.781  13.640  48.074  1.00  0.00     0.049 A 
HETATM    8  C15 UNL     1     -39.436  14.639  49.173  1.00  0.00     0.035 A 
HETATM    9  C16 UNL     1     -38.973  14.335  49.343  1.00  0.00     0.042 A 
HETATM   10  C18 UNL     1     -40.139  15.145  48.950  1.00  0.00     0.051 A 
HETATM   11  C19 UNL     1     -40.490  14.132  47.834  1.00  0.00     0.031 A 
HETATM   12  C20 UNL     1     -40.670  14.890  48.276  1.00  0.00     0.033 A 
ENDROOT
BRANCH   1  13
HETATM   13  C6  UNL     1     -37.459  13.182  49.773  1.00  0.00     0.026 A 
HETATM   14  C1  UNL     1     -37.444  12.374  49.606  1.00  0.00     0.055 A 
HETATM   15  C2  UNL     1     -38.092  12.015  49.244  1.00  0.00     0.047 A 
HETATM   16  C5  UNL     1     -36.874  11.797  49.732  1.00  0.00     0.061 A 
HETATM   17  C12 UNL     1     -36.795  12.733  49.968  1.00  0.00     0.059 C 
HETATM   18  O1  UNL     1     -36.378  12.362  50.072  1.00  0.00     0.000 OA
HETATM   19  C3  UNL     1     -38.756  12.463  49.049  1.00  0.00     0.046 A 
HETATM   20  C9  UNL     1     -37.917  11.219  49.149  1.00  0.00     0.029 A 
HETATM   21  C10 UNL     1     -37.166  11.085  49.450  1.00  0.00     0.057 A 
HETATM   22  C11 UNL     1     -39.425  12.077  48.671  1.00  0.00     0.035 A 
HETATM   23  C14 UNL     1     -40.120  12.540  48.466  1.00  0.00     0.032 A 
HETATM   24  C17 UNL     1     -36.176  11.420  49.957  1.00  0.00     0.092 A 
HETATM   25  O3  UNL     1     -35.571  11.852  50.316  1.00  0.00     0.000 OA
HETATM   26  C21 UNL     1     -36.082  10.611  49.824  1.00  0.00     0.118 A 
HETATM   27  O4  UNL     1     -35.384  10.234  50.050  1.00  0.00    -0.363 OA
ENDBRANCH   1  13
TORSDOF 48
ENDMDL
