MODEL 1
REMARK VINA RESULT:     426.3      0.000      0.000
REMARK WARNING: 32 MAX_TORS EXCEEDED!!!
REMARK  37 active torsions:
REMARK  status: ('A' for Active; 'I' for Inactive)
REMARK    1  A    between atoms: CL1_1  and  C15_21 
REMARK    2  A    between atoms: F1_2  and  N3_6 
REMARK    3  A    between atoms: O1_3  and  C1_7 
REMARK    4  A    between atoms: O1_3  and  C2_8 
REMARK    5  A    between atoms: O1_3  and  C9_15 
REMARK    6  A    between atoms: N1_4  and  C9_15 
REMARK    7  A    between atoms: N3_6  and  C7_13 
REMARK    8  A    between atoms: C1_7  and  C4_10 
REMARK    9  A    between atoms: C1_7  and  C7_13 
REMARK   10  A    between atoms: C1_7  and  C10_16 
REMARK   11  A    between atoms: C2_8  and  C7_13 
REMARK   12  A    between atoms: C3_9  and  C7_13 
REMARK   13  A    between atoms: C3_9  and  C8_14 
REMARK   14  A    between atoms: C4_10  and  C5_11 
REMARK   15  A    between atoms: C4_10  and  C13_19 
REMARK   16  A    between atoms: C5_11  and  C12_18 
REMARK   17  A    between atoms: C6_12  and  C10_16 
REMARK   18  A    between atoms: C6_12  and  C14_20 
REMARK   19  A    between atoms: C6_12  and  C16_22 
REMARK   20  A    between atoms: C6_12  and  C18_24 
REMARK   21  A    between atoms: C7_13  and  C9_15 
REMARK   22  A    between atoms: C8_14  and  C11_17 
REMARK   23  A    between atoms: C8_14  and  C17_23 
REMARK   24  A    between atoms: C10_16  and  C16_22 
REMARK   25  A    between atoms: C11_17  and  C14_20 
REMARK   26  A    between atoms: C11_17  and  C15_21 
REMARK   27  A    between atoms: C11_17  and  C18_24 
REMARK   28  A    between atoms: C12_18  and  C13_19 
REMARK   29  A    between atoms: C14_20  and  C19_25 
REMARK   30  A    between atoms: C14_20  and  C21_27 
REMARK   31  A    between atoms: C15_21  and  C16_22 
REMARK   32  A    between atoms: C17_23  and  C18_24 
REMARK   33  A    between atoms: C17_23  and  C20_26 
REMARK   34  A    between atoms: C18_24  and  C19_25 
REMARK   35  A    between atoms: C18_24  and  C21_27 
REMARK   36  A    between atoms: C19_25  and  C20_26 
REMARK   37  A    between atoms: C20_26  and  C21_27 
ROOT
HETATM    1 CL1  UNL     1     -41.162  13.014  47.576  1.00  0.00    -0.248 Cl
HETATM    2  F1  UNL     1     -39.293  15.405  50.520  1.00  0.00    -0.484 F 
HETATM    3  O1  UNL     1     -36.968  12.992  49.748  1.00  0.00     0.000 OA
HETATM    4  N1  UNL     1     -38.136  12.823  48.999  1.00  0.00     0.000 N 
HETATM    5  N2  UNL     1     -36.557  11.363  48.622  1.00  0.00     0.000 N 
HETATM    6  N3  UNL     1     -38.703  14.320  49.935  1.00  0.00     0.000 N 
HETATM    7  C1  UNL     1     -37.728  12.180  48.682  1.00  0.00     0.004 A 
HETATM    8  C2  UNL     1     -36.964  12.008  48.940  1.00  0.00     0.000 A 
HETATM    9  C3  UNL     1     -38.896  12.947  48.704  1.00  0.00     0.028 A 
HETATM   10  C4  UNL     1     -36.914  10.892  48.048  1.00  0.00     0.000 A 
HETATM   11  C5  UNL     1     -35.792  11.191  48.880  1.00  0.00     0.000 A 
HETATM   12  C6  UNL     1     -39.437  13.536  48.906  1.00  0.00     0.045 A 
HETATM   13  C7  UNL     1     -37.729  13.259  49.570  1.00  0.00     0.003 A 
HETATM   14  C8  UNL     1     -39.351  14.147  49.454  1.00  0.00     0.048 A 
HETATM   15  C9  UNL     1     -37.981  13.925  49.986  1.00  0.00     0.005 A 
HETATM   16  C10 UNL     1     -39.090  12.354  48.114  1.00  0.00     0.028 A 
HETATM   17  C11 UNL     1     -40.210  13.572  48.533  1.00  0.00     0.054 A 
HETATM   18  C12 UNL     1     -36.507  10.249  47.731  1.00  0.00     0.000 A 
HETATM   19  C13 UNL     1     -35.385  10.548  48.563  1.00  0.00     0.000 A 
HETATM   20  C14 UNL     1     -39.999  14.652  49.532  1.00  0.00     0.057 A 
HETATM   21  C15 UNL     1     -39.859  12.373  47.729  1.00  0.00     0.054 A 
HETATM   22  C16 UNL     1     -40.422  12.987  47.940  1.00  0.00     0.056 A 
HETATM   23  C17 UNL     1     -39.970  15.281  50.065  1.00  0.00     0.069 A 
HETATM   24  C18 UNL     1     -40.676  14.528  49.076  1.00  0.00     0.066 A 
HETATM   25  C19 UNL     1     -40.618  15.786  50.142  1.00  0.00     0.079 A 
HETATM   26  C20 UNL     1     -41.323  15.033  49.154  1.00  0.00     0.068 A 
HETATM   27  C21 UNL     1     -41.295  15.662  49.686  1.00  0.00     0.068 A 
ENDROOT
TORSDOF 37
ENDMDL
