MODEL 1
REMARK VINA RESULT:     260.4      0.000      0.000
REMARK WARNING: 32 MAX_TORS EXCEEDED!!!
REMARK  34 active torsions:
REMARK  status: ('A' for Active; 'I' for Inactive)
REMARK    1  A    between atoms: N2_3  and  C1_5 
REMARK    2  A    between atoms: N2_3  and  C4_8 
REMARK    3  A    between atoms: N3_4  and  C1_5 
REMARK    4  A    between atoms: N3_4  and  C3_7 
REMARK    5  A    between atoms: N3_4  and  C5_9 
REMARK    6  A    between atoms: N3_4  and  C8_12 
REMARK    7  A    between atoms: N3_4  and  C13_17 
REMARK    8  A    between atoms: C1_5  and  C8_12 
REMARK    9  A    between atoms: C1_5  and  C9_13 
REMARK   10  A    between atoms: C2_6  and  C5_9 
REMARK   11  A    between atoms: C2_6  and  C8_12 
REMARK   12  A    between atoms: C3_7  and  C4_8 
REMARK   13  A    between atoms: C4_8  and  C8_12 
REMARK   14  A    between atoms: C5_9  and  C6_10 
REMARK   15  A    between atoms: C5_9  and  C10_14 
REMARK   16  A    between atoms: C5_9  and  C11_15 
REMARK   17  A    between atoms: C6_10  and  C7_11 
REMARK   18  A    between atoms: C6_10  and  C14_18 
REMARK   19  A    between atoms: C6_10  and  C16_20 
REMARK   20  A    between atoms: C7_11  and  C8_12 
REMARK   21  A    between atoms: C7_11  and  C10_14 
REMARK   22  A    between atoms: C7_11  and  C13_17 
REMARK   23  A    between atoms: C8_12  and  C11_15 
REMARK   24  A    between atoms: C8_12  and  C12_16 
REMARK   25  A    between atoms: C9_13  and  C10_14 
REMARK   26  A    between atoms: C9_13  and  C15_19 
REMARK   27  A    between atoms: C9_13  and  C16_20 
REMARK   28  A    between atoms: C10_14  and  C14_18 
REMARK   29  A    between atoms: C10_14  and  C16_20 
REMARK   30  A    between atoms: C11_15  and  C13_17 
REMARK   31  A    between atoms: C12_16  and  C13_17 
REMARK   32  A    between atoms: C13_17  and  C17_21 
REMARK   33  A    between atoms: C14_18  and  C15_19 
REMARK   34  A    between atoms: C15_19  and  C16_20 
ROOT
HETATM    1  O1  UNL     1     -40.687  10.421  49.100  1.00  0.00     0.000 OA
HETATM    2  N1  UNL     1     -40.107  13.217  48.982  1.00  0.00     0.000 N 
HETATM    3  N2  UNL     1     -41.323  14.348  50.437  1.00  0.00     0.000 N 
HETATM    4  N3  UNL     1     -40.413  14.805  49.574  1.00  0.00     0.000 N 
HETATM    5  C1  UNL     1     -40.659  13.356  49.578  1.00  0.00     0.000 A 
HETATM    6  C2  UNL     1     -40.790  14.125  49.847  1.00  0.00     0.000 A 
HETATM    7  C3  UNL     1     -41.273  15.167  50.528  1.00  0.00     0.000 A 
HETATM    8  C4  UNL     1     -40.712  15.449  49.995  1.00  0.00     0.000 A 
HETATM    9  C5  UNL     1     -39.685  13.846  48.654  1.00  0.00     0.000 A 
HETATM   10  C6  UNL     1     -39.975  12.448  48.714  1.00  0.00     0.000 A 
HETATM   11  C7  UNL     1     -39.133  13.706  48.058  1.00  0.00     0.000 A 
HETATM   12  C8  UNL     1     -39.817  14.614  48.923  1.00  0.00     0.000 A 
HETATM   13  C9  UNL     1     -40.396  11.818  49.041  1.00  0.00     0.000 A 
HETATM   14  C10 UNL     1     -39.422  12.308  48.117  1.00  0.00     0.000 A 
HETATM   15  C11 UNL     1     -38.843  15.104  47.999  1.00  0.00     0.000 A 
HETATM   16  C12 UNL     1     -38.711  14.335  47.730  1.00  0.00     0.000 A 
HETATM   17  C13 UNL     1     -39.396  15.244  48.596  1.00  0.00     0.000 A 
HETATM   18  C14 UNL     1     -40.265  11.050  48.772  1.00  0.00     0.000 A 
HETATM   19  C15 UNL     1     -39.291  11.539  47.848  1.00  0.00     0.000 A 
HETATM   20  C16 UNL     1     -39.713  10.910  48.176  1.00  0.00     0.000 A 
HETATM   21  C17 UNL     1     -38.422  15.734  47.672  1.00  0.00     0.000 A 
ENDROOT
TORSDOF 34
ENDMDL
