MODEL 1
REMARK VINA RESULT:     302.1      0.000      0.000
REMARK WARNING: 32 MAX_TORS EXCEEDED!!!
REMARK  49 active torsions:
REMARK  status: ('A' for Active; 'I' for Inactive)
REMARK    1  A    between atoms: O1_1  and  C5_10 
REMARK    2  A    between atoms: O1_1  and  C10_15 
REMARK    3  A    between atoms: O2_2  and  C4_9 
REMARK    4  A    between atoms: O3_3  and  C12_17 
REMARK    5  A    between atoms: O4_4  and  C16_21 
REMARK    6  A    between atoms: O5_5  and  C17_22 
REMARK    7  A    between atoms: C1_6  and  C6_11 
REMARK    8  A    between atoms: C1_6  and  C7_12 
REMARK    9  A    between atoms: C2_7  and  C3_8 
REMARK   10  A    between atoms: C2_7  and  C7_12 
REMARK   11  A    between atoms: C2_7  and  C8_13 
REMARK   12  A    between atoms: C2_7  and  C11_16 
REMARK   13  A    between atoms: C3_8  and  C4_9 
REMARK   14  A    between atoms: C3_8  and  C7_12 
REMARK   15  A    between atoms: C3_8  and  C8_13 
REMARK   16  A    between atoms: C3_8  and  C13_18 
REMARK   17  A    between atoms: C3_8  and  C19_24 
REMARK   18  A    between atoms: C4_9  and  C7_12 
REMARK   19  A    between atoms: C4_9  and  C5_10 
REMARK   20  A    between atoms: C4_9  and  C6_11 
REMARK   21  A    between atoms: C4_9  and  C9_14 
REMARK   22  A    between atoms: C4_9  and  C14_19 
REMARK   23  A    between atoms: C4_9  and  C20_25 
REMARK   24  A    between atoms: C5_10  and  C9_14 
REMARK   25  A    between atoms: C5_10  and  C11_16 
REMARK   26  A    between atoms: C5_10  and  C15_20 
REMARK   27  A    between atoms: C6_11  and  C10_15 
REMARK   28  A    between atoms: C6_11  and  C16_21 
REMARK   29  A    between atoms: C6_11  and  C19_24 
REMARK   30  A    between atoms: C7_12  and  C11_16 
REMARK   31  A    between atoms: C7_12  and  C17_22 
REMARK   32  A    between atoms: C7_12  and  C20_25 
REMARK   33  A    between atoms: C8_13  and  C10_15 
REMARK   34  A    between atoms: C8_13  and  C12_17 
REMARK   35  A    between atoms: C9_14  and  C11_16 
REMARK   36  A    between atoms: C9_14  and  C12_17 
REMARK   37  A    between atoms: C9_14  and  C17_22 
REMARK   38  A    between atoms: C9_14  and  C18_23 
REMARK   39  A    between atoms: C10_15  and  C13_18 
REMARK   40  A    between atoms: C10_15  and  C19_24 
REMARK   41  A    between atoms: C11_16  and  C14_19 
REMARK   42  A    between atoms: C11_16  and  C15_20 
REMARK   43  A    between atoms: C11_16  and  C20_25 
REMARK   44  A    between atoms: C12_17  and  C15_20 
REMARK   45  A    between atoms: C13_18  and  C16_21 
REMARK   46  A    between atoms: C14_19  and  C17_22 
REMARK   47  A    between atoms: C15_20  and  C18_23 
REMARK   48  A    between atoms: C16_21  and  C19_24 
REMARK   49  A    between atoms: C17_22  and  C20_25 
ROOT
HETATM    1  O1  UNL     1     -38.877  14.971  49.999  1.00  0.00     0.000 OA
HETATM    2  O2  UNL     1     -37.471  13.423  50.491  1.00  0.00     0.000 OA
HETATM    3  O3  UNL     1     -39.940  15.837  49.667  1.00  0.00     0.000 OA
HETATM    4  O4  UNL     1     -36.055  15.835  50.466  1.00  0.00     0.000 OA
HETATM    5  O5  UNL     1     -38.855  10.994  50.526  1.00  0.00     0.000 OA
HETATM    6  C1  UNL     1     -38.806  14.191  50.116  1.00  0.00     0.000 A 
HETATM    7  C2  UNL     1     -39.519  13.861  50.013  1.00  0.00     0.000 A 
HETATM    8  C3  UNL     1     -38.128  14.592  50.203  1.00  0.00     0.000 A 
HETATM    9  C4  UNL     1     -38.815  13.405  50.218  1.00  0.00     0.000 A 
HETATM   10  C5  UNL     1     -40.031  14.438  49.832  1.00  0.00     0.000 A 
HETATM   11  C6  UNL     1     -37.462  14.209  50.390  1.00  0.00     0.000 A 
HETATM   12  C7  UNL     1     -38.149  13.022  50.405  1.00  0.00     0.000 A 
HETATM   13  C8  UNL     1     -39.635  15.124  49.823  1.00  0.00     0.000 A 
HETATM   14  C9  UNL     1     -40.118  13.297  49.964  1.00  0.00     0.000 A 
HETATM   15  C10 UNL     1     -38.131  15.410  50.095  1.00  0.00     0.000 A 
HETATM   16  C11 UNL     1     -39.527  12.997  50.125  1.00  0.00     0.000 A 
HETATM   17  C12 UNL     1     -40.792  14.692  49.642  1.00  0.00     0.000 A 
HETATM   18  C13 UNL     1     -36.750  14.617  50.483  1.00  0.00     0.000 A 
HETATM   19  C14 UNL     1     -38.146  12.203  50.513  1.00  0.00     0.000 A 
HETATM   20  C15 UNL     1     -41.006  13.469  49.759  1.00  0.00     0.000 A 
HETATM   21  C16 UNL     1     -37.429  15.835  50.184  1.00  0.00     0.000 A 
HETATM   22  C17 UNL     1     -39.543  12.179  50.229  1.00  0.00     0.000 A 
HETATM   23  C18 UNL     1     -41.284  14.205  49.605  1.00  0.00     0.000 A 
HETATM   24  C19 UNL     1     -36.734  15.435  50.379  1.00  0.00     0.000 A 
HETATM   25  C20 UNL     1     -38.848  11.779  50.424  1.00  0.00     0.000 A 
ENDROOT
TORSDOF 49
ENDMDL
