MODEL 1
REMARK VINA RESULT:     207.7      0.000      0.000
REMARK  24 active torsions:
REMARK  status: ('A' for Active; 'I' for Inactive)
REMARK    1  A    between atoms: CL1_1  and  C6_15 
REMARK    2  A    between atoms: O1_3  and  C11_20 
REMARK    3  A    between atoms: O2_4  and  C7_16 
REMARK    4  A    between atoms: O3_5  and  C2_11 
REMARK    5  A    between atoms: O3_5  and  C4_13 
REMARK    6  A    between atoms: O5_7  and  N1_8 
REMARK    7  A    between atoms: N1_8  and  C8_17 
REMARK    8  A    between atoms: C1_10  and  C2_11 
REMARK    9  A    between atoms: C1_10  and  C4_13 
REMARK   10  A    between atoms: C1_10  and  C7_16 
REMARK   11  A    between atoms: C1_10  and  C9_18 
REMARK   12  A    between atoms: C2_11  and  C3_12 
REMARK   13  A    between atoms: C2_11  and  C6_15 
REMARK   14  A    between atoms: C3_12  and  C4_13 
REMARK   15  A    between atoms: C3_12  and  C6_15 
REMARK   16  A    between atoms: C3_12  and  C7_16 
REMARK   17  A    between atoms: C4_13  and  C6_15 
REMARK   18  A    between atoms: C4_13  and  C7_16 
REMARK   19  A    between atoms: C4_13  and  C9_18 
REMARK   20  A    between atoms: C5_14  and  C6_15 
REMARK   21  A    between atoms: C5_14  and  C10_19 
REMARK   22  A    between atoms: C6_15  and  C7_16 
REMARK   23  A    between atoms: C10_19  and  C12_21 
REMARK   24  A    between atoms: C11_20  and  C12_21 
ROOT
HETATM    1 CL1  UNL     1     -40.814  14.275  50.507  1.00  0.00    -0.231 Cl
HETATM    2  S1  UNL     1     -40.657  15.300  49.224  1.00  0.00    -0.098 SA
HETATM    3  O2  UNL     1     -41.133  14.916  49.777  1.00  0.00     0.000 OA
HETATM    4  O3  UNL     1     -40.181  15.684  48.670  1.00  0.00     0.000 OA
HETATM    5  N2  UNL     1     -41.325  15.660  48.900  1.00  0.00    -0.077 NA
HETATM    6  C2  UNL     1     -39.990  14.940  49.548  1.00  0.00     0.101 A 
HETATM    7  C4  UNL     1     -39.244  15.093  49.230  1.00  0.00     0.108 A 
HETATM    8  C7  UNL     1     -40.068  14.428  50.189  1.00  0.00     0.101 A 
ENDROOT
BRANCH   1   9
HETATM    9  C6  UNL     1     -39.400  14.068  50.513  1.00  0.00     0.085 A 
HETATM   10  C1  UNL     1     -38.752  13.557  50.516  1.00  0.00     0.093 A 
HETATM   11  N1  UNL     1     -37.986  13.862  50.519  1.00  0.00     0.000 N 
HETATM   12  C3  UNL     1     -38.872  12.741  50.517  1.00  0.00     0.117 A 
HETATM   13  C5  UNL     1     -37.867  14.678  50.519  1.00  0.00     0.023 A 
HETATM   14  C9  UNL     1     -38.224  12.230  50.520  1.00  0.00     0.134 A 
HETATM   15  O4  UNL     1     -38.344  11.413  50.520  1.00  0.00    -0.359 OA
HETATM   16  O5  UNL     1     -37.457  12.535  50.523  1.00  0.00     0.000 OA
HETATM   17  C8  UNL     1     -37.100  14.983  50.521  1.00  0.00     0.002 A 
HETATM   18  O1  UNL     1     -36.403  14.543  50.525  1.00  0.00     0.000 OA
HETATM   19  C10 UNL     1     -36.897  15.783  50.521  1.00  0.00     0.002 A 
HETATM   20  C11 UNL     1     -36.073  15.836  50.524  1.00  0.00     0.000 A 
HETATM   21  C12 UNL     1     -35.768  15.070  50.527  1.00  0.00     0.000 A 
ENDBRANCH   1   9
TORSDOF 24
ENDMDL
