MODEL 1
REMARK VINA RESULT:      87.1      0.000      0.000
REMARK  23 active torsions:
REMARK  status: ('A' for Active; 'I' for Inactive)
REMARK    1  A    between atoms: CL1_1  and  N3_5 
REMARK    2  A    between atoms: CL1_1  and  C2_9 
REMARK    3  A    between atoms: CL1_1  and  C3_10 
REMARK    4  A    between atoms: N1_3  and  N3_5 
REMARK    5  A    between atoms: N2_4  and  N3_5 
REMARK    6  A    between atoms: N2_4  and  C5_12 
REMARK    7  A    between atoms: N3_5  and  C7_14 
REMARK    8  A    between atoms: N4_6  and  C4_11 
REMARK    9  A    between atoms: N4_6  and  C6_13 
REMARK   10  A    between atoms: N5_7  and  C5_12 
REMARK   11  A    between atoms: C3_10  and  C7_14 
REMARK   12  A    between atoms: C4_11  and  C5_12 
REMARK   13  A    between atoms: C4_11  and  C6_13 
REMARK   14  A    between atoms: C4_11  and  C8_15 
REMARK   15  A    between atoms: C4_11  and  C9_16 
REMARK   16  A    between atoms: C5_12  and  C6_13 
REMARK   17  A    between atoms: C5_12  and  C7_14 
REMARK   18  A    between atoms: C5_12  and  C8_15 
REMARK   19  A    between atoms: C5_12  and  C9_16 
REMARK   20  A    between atoms: C6_13  and  C7_14 
REMARK   21  A    between atoms: C6_13  and  C9_16 
REMARK   22  A    between atoms: C7_14  and  C8_15 
REMARK   23  A    between atoms: C8_15  and  C9_16 
ROOT
HETATM    1 CL1  UNL     1     -38.778  15.757  50.510  1.00  0.00    -0.302 Cl
HETATM    2  N1  UNL     1     -37.329  15.795  48.920  1.00  0.00     0.000 N 
HETATM    3  N2  UNL     1     -38.797  15.730  48.861  1.00  0.00     0.000 N 
HETATM    4  N3  UNL     1     -37.983  15.784  50.084  1.00  0.00     0.000 N 
HETATM    5  C1  UNL     1     -36.771  15.828  49.526  1.00  0.00     0.026 A 
HETATM    6  C2  UNL     1     -37.175  15.822  50.245  1.00  0.00     0.047 A 
HETATM    7  C3  UNL     1     -38.079  15.767  49.264  1.00  0.00     0.046 A 
HETATM    8  C4  UNL     1     -39.506  15.706  49.282  1.00  0.00     0.049 A 
HETATM    9  C7  UNL     1     -39.497  15.719  50.107  1.00  0.00     0.049 A 
HETATM   10  C9  UNL     1     -40.206  15.695  50.528  1.00  0.00     0.049 A 
ENDROOT
BRANCH   9  11
HETATM   11  C5  UNL     1     -40.225  15.669  48.878  1.00  0.00     0.063 A 
HETATM   12  N4  UNL     1     -40.463  15.807  48.106  1.00  0.00     0.000 N 
HETATM   13  S1  UNL     1     -41.130  15.352  47.959  1.00  0.00    -0.139 SA
HETATM   14  N5  UNL     1     -41.305  14.932  48.641  1.00  0.00     0.000 N 
HETATM   15  C6  UNL     1     -40.749  15.125  49.211  1.00  0.00     0.063 A 
HETATM   16  C8  UNL     1     -40.646  14.878  49.991  1.00  0.00     0.049 A 
ENDBRANCH   9  11
TORSDOF 23
ENDMDL
