MODEL 1
REMARK VINA RESULT:     339.6      0.000      0.000
REMARK WARNING: 32 MAX_TORS EXCEEDED!!!
REMARK  47 active torsions:
REMARK  status: ('A' for Active; 'I' for Inactive)
REMARK    1  A    between atoms: O1_1  and  C6_11 
REMARK    2  A    between atoms: O2_2  and  C11_16 
REMARK    3  A    between atoms: O2_2  and  C12_17 
REMARK    4  A    between atoms: O3_3  and  C12_17 
REMARK    5  A    between atoms: O4_4  and  C20_25 
REMARK    6  A    between atoms: C1_6  and  C7_12 
REMARK    7  A    between atoms: C1_6  and  C9_14 
REMARK    8  A    between atoms: C1_6  and  C12_17 
REMARK    9  A    between atoms: C1_6  and  C14_19 
REMARK   10  A    between atoms: C1_6  and  C15_20 
REMARK   11  A    between atoms: C2_7  and  C4_9 
REMARK   12  A    between atoms: C2_7  and  C8_13 
REMARK   13  A    between atoms: C2_7  and  C9_14 
REMARK   14  A    between atoms: C2_7  and  C10_15 
REMARK   15  A    between atoms: C2_7  and  C14_19 
REMARK   16  A    between atoms: C3_8  and  C5_10 
REMARK   17  A    between atoms: C3_8  and  C6_11 
REMARK   18  A    between atoms: C3_8  and  C7_12 
REMARK   19  A    between atoms: C3_8  and  C10_15 
REMARK   20  A    between atoms: C4_9  and  C5_10 
REMARK   21  A    between atoms: C4_9  and  C6_11 
REMARK   22  A    between atoms: C4_9  and  C7_12 
REMARK   23  A    between atoms: C4_9  and  C12_17 
REMARK   24  A    between atoms: C5_10  and  C8_13 
REMARK   25  A    between atoms: C5_10  and  C6_11 
REMARK   26  A    between atoms: C5_10  and  C9_14 
REMARK   27  A    between atoms: C5_10  and  C10_15 
REMARK   28  A    between atoms: C5_10  and  C15_20 
REMARK   29  A    between atoms: C5_10  and  C18_23 
REMARK   30  A    between atoms: C6_11  and  C15_20 
REMARK   31  A    between atoms: C6_11  and  C8_13 
REMARK   32  A    between atoms: C6_11  and  C9_14 
REMARK   33  A    between atoms: C6_11  and  C19_24 
REMARK   34  A    between atoms: C6_11  and  C20_25 
REMARK   35  A    between atoms: C7_12  and  C14_19 
REMARK   36  A    between atoms: C8_13  and  C9_14 
REMARK   37  A    between atoms: C8_13  and  C10_15 
REMARK   38  A    between atoms: C9_14  and  C10_15 
REMARK   39  A    between atoms: C9_14  and  C18_23 
REMARK   40  A    between atoms: C10_15  and  C15_20 
REMARK   41  A    between atoms: C10_15  and  C19_24 
REMARK   42  A    between atoms: C12_17  and  C14_19 
REMARK   43  A    between atoms: C15_20  and  C18_23 
REMARK   44  A    between atoms: C15_20  and  C20_25 
REMARK   45  A    between atoms: C16_21  and  C17_22 
REMARK   46  A    between atoms: C18_23  and  C19_24 
REMARK   47  A    between atoms: C19_24  and  C20_25 
ROOT
HETATM    1  O1  UNL     1     -38.799  15.231  50.332  1.00  0.00     0.000 OA
HETATM    2  O2  UNL     1     -40.732  13.334  49.123  1.00  0.00     0.000 OA
HETATM    3  O3  UNL     1     -40.862  15.776  50.492  1.00  0.00     0.000 OA
HETATM    4  O4  UNL     1     -36.760  15.044  50.373  1.00  0.00     0.000 OA
HETATM    5  N1  UNL     1     -40.224  12.474  48.675  1.00  0.00     0.000 N 
HETATM    6  C1  UNL     1     -39.461  14.231  49.721  1.00  0.00     0.000 A 
HETATM    7  C2  UNL     1     -39.986  13.694  49.380  1.00  0.00     0.000 A 
HETATM    8  C3  UNL     1     -39.699  13.011  49.015  1.00  0.00     0.000 A 
HETATM    9  C4  UNL     1     -39.748  14.914  50.085  1.00  0.00     0.000 A 
HETATM   10  C5  UNL     1     -38.945  13.719  49.468  1.00  0.00     0.000 A 
HETATM   11  C6  UNL     1     -38.649  14.086  49.697  1.00  0.00     0.000 A 
HETATM   12  C7  UNL     1     -40.798  13.839  49.403  1.00  0.00     0.000 A 
HETATM   13  C8  UNL     1     -39.140  12.716  48.889  1.00  0.00     0.000 A 
HETATM   14  C9  UNL     1     -38.887  12.867  48.992  1.00  0.00     0.000 A 
HETATM   15  C10 UNL     1     -38.362  13.405  49.333  1.00  0.00     0.000 A 
HETATM   16  C11 UNL     1     -40.947  12.081  48.401  1.00  0.00     0.000 A 
HETATM   17  C12 UNL     1     -41.085  14.521  49.767  1.00  0.00     0.000 A 
HETATM   18  C13 UNL     1     -40.897  11.326  47.978  1.00  0.00     0.000 A 
HETATM   19  C14 UNL     1     -40.560  15.059  50.109  1.00  0.00     0.000 A 
HETATM   20  C15 UNL     1     -38.124  14.624  50.038  1.00  0.00     0.000 A 
HETATM   21  C16 UNL     1     -41.285  10.662  47.576  1.00  0.00     0.000 A 
HETATM   22  C17 UNL     1     -40.421  10.680  47.648  1.00  0.00     0.000 A 
HETATM   23  C18 UNL     1     -37.550  13.260  49.310  1.00  0.00     0.000 A 
HETATM   24  C19 UNL     1     -37.312  14.479  50.015  1.00  0.00     0.000 A 
HETATM   25  C20 UNL     1     -37.025  13.797  49.650  1.00  0.00     0.000 A 
ENDROOT
TORSDOF 47
ENDMDL
