MODEL 1
REMARK VINA RESULT:     128.1      0.000      0.000
REMARK  14 active torsions:
REMARK  status: ('A' for Active; 'I' for Inactive)
REMARK    1  A    between atoms: N1_2  and  N3_4 
REMARK    2  A    between atoms: N1_2  and  C4_8 
REMARK    3  A    between atoms: N2_3  and  C2_6 
REMARK    4  A    between atoms: C1_5  and  C4_8 
REMARK    5  A    between atoms: C1_5  and  C5_9 
REMARK    6  A    between atoms: C2_6  and  C4_8 
REMARK    7  A    between atoms: C2_6  and  C3_7 
REMARK    8  A    between atoms: C2_6  and  C5_9 
REMARK    9  A    between atoms: C2_6  and  C8_12 
REMARK   10  A    between atoms: C4_8  and  C6_10 
REMARK   11  A    between atoms: C7_11  and  C8_12 
REMARK   12  A    between atoms: C7_11  and  C10_14 
REMARK   13  A    between atoms: C8_12  and  C9_13 
REMARK   14  A    between atoms: C9_13  and  C10_14 
ROOT
HETATM    1  O1  UNL     1     -37.665  15.338  50.525  1.00  0.00     0.000 OA
HETATM    2  N1  UNL     1     -38.969  14.888  50.149  1.00  0.00     0.000 N 
HETATM    3  N2  UNL     1     -40.541  15.218  49.773  1.00  0.00     0.000 N 
HETATM    4  N3  UNL     1     -37.914  13.943  50.338  1.00  0.00     0.000 N 
HETATM    5  C1  UNL     1     -39.237  15.668  50.149  1.00  0.00     0.000 A 
HETATM    6  C2  UNL     1     -39.486  14.274  49.962  1.00  0.00     0.000 A 
HETATM    7  C3  UNL     1     -40.024  15.834  49.960  1.00  0.00     0.000 A 
HETATM    8  C4  UNL     1     -40.273  14.439  49.773  1.00  0.00     0.000 A 
HETATM    9  C5  UNL     1     -38.183  14.723  50.338  1.00  0.00     0.000 A 
HETATM   10  C6  UNL     1     -41.327  15.384  49.584  1.00  0.00     0.000 A 
HETATM   11  C7  UNL     1     -37.129  13.778  50.527  1.00  0.00     0.000 A 
HETATM   12  C8  UNL     1     -38.432  13.329  50.151  1.00  0.00     0.000 A 
HETATM   13  C9  UNL     1     -36.859  12.998  50.527  1.00  0.00     0.000 A 
HETATM   14  C10 UNL     1     -38.162  12.548  50.152  1.00  0.00     0.000 A 
ENDROOT
TORSDOF 14
ENDMDL
