MODEL 1
REMARK VINA RESULT:     202.1      0.000      0.000
REMARK  27 active torsions:
REMARK  status: ('A' for Active; 'I' for Inactive)
REMARK    1  A    between atoms: F1_1  and  C4_7 
REMARK    2  A    between atoms: F1_1  and  C11_14 
REMARK    3  A    between atoms: O2_3  and  C5_8 
REMARK    4  A    between atoms: C2_5  and  C3_6 
REMARK    5  A    between atoms: C2_5  and  C6_9 
REMARK    6  A    between atoms: C2_5  and  C7_10 
REMARK    7  A    between atoms: C2_5  and  C10_13 
REMARK    8  A    between atoms: C3_6  and  C4_7 
REMARK    9  A    between atoms: C3_6  and  C5_8 
REMARK   10  A    between atoms: C4_7  and  C6_9 
REMARK   11  A    between atoms: C4_7  and  C5_8 
REMARK   12  A    between atoms: C4_7  and  C7_10 
REMARK   13  A    between atoms: C4_7  and  C8_11 
REMARK   14  A    between atoms: C5_8  and  C7_10 
REMARK   15  A    between atoms: C5_8  and  C6_9 
REMARK   16  A    between atoms: C5_8  and  C10_13 
REMARK   17  A    between atoms: C6_9  and  C11_14 
REMARK   18  A    between atoms: C7_10  and  C9_12 
REMARK   19  A    between atoms: C7_10  and  C12_15 
REMARK   20  A    between atoms: C8_11  and  C10_13 
REMARK   21  A    between atoms: C9_12  and  C15_18 
REMARK   22  A    between atoms: C11_14  and  C12_15 
REMARK   23  A    between atoms: C11_14  and  C14_17 
REMARK   24  A    between atoms: C12_15  and  C13_16 
REMARK   25  A    between atoms: C12_15  and  C15_18 
REMARK   26  A    between atoms: C13_16  and  C14_17 
REMARK   27  A    between atoms: C14_17  and  C15_18 
ROOT
HETATM    1  F1  UNL     1     -39.662  12.910  50.257  1.00  0.00    -0.556 F 
HETATM    2  C3  UNL     1     -39.008  14.180  50.237  1.00  0.00     0.051 A 
HETATM    3  C6  UNL     1     -38.969  13.356  50.278  1.00  0.00     0.057 A 
HETATM    4  C7  UNL     1     -38.315  14.627  50.258  1.00  0.00     0.066 A 
HETATM    5  C9  UNL     1     -39.740  14.556  50.177  1.00  0.00     0.048 A 
HETATM    6  C11 UNL     1     -40.432  14.108  50.156  1.00  0.00     0.034 A 
HETATM    7  C12 UNL     1     -39.779  15.378  50.136  1.00  0.00     0.041 A 
HETATM    8  C13 UNL     1     -41.164  14.483  50.095  1.00  0.00     0.029 A 
HETATM    9  C14 UNL     1     -40.511  15.754  50.076  1.00  0.00     0.029 A 
HETATM   10  C15 UNL     1     -41.204  15.307  50.055  1.00  0.00     0.029 A 
ENDROOT
BRANCH   1  11
HETATM   11  C4  UNL     1     -38.237  12.981  50.338  1.00  0.00     0.064 A 
HETATM   12  C2  UNL     1     -37.501  12.607  50.326  1.00  0.00     0.086 A 
HETATM   13  C1  UNL     1     -36.812  13.050  50.420  1.00  0.00     0.108 A 
HETATM   14  C5  UNL     1     -37.454  11.790  50.221  1.00  0.00     0.089 A 
HETATM   15  C8  UNL     1     -36.858  13.868  50.525  1.00  0.00     0.076 A 
HETATM   16  C10 UNL     1     -36.076  12.678  50.408  1.00  0.00     0.112 A 
HETATM   17  O1  UNL     1     -35.387  13.122  50.501  1.00  0.00    -0.362 OA
HETATM   18  O2  UNL     1     -36.030  11.860  50.302  1.00  0.00     0.000 OA
ENDBRANCH   1  11
TORSDOF 27
ENDMDL
