MODEL 1
REMARK VINA RESULT:     344.9      0.000      0.000
REMARK WARNING: 32 MAX_TORS EXCEEDED!!!
REMARK  36 active torsions:
REMARK  status: ('A' for Active; 'I' for Inactive)
REMARK    1  A    between atoms: S1_1  and  C3_12 
REMARK    2  A    between atoms: S1_1  and  C4_13 
REMARK    3  A    between atoms: S1_1  and  C5_14 
REMARK    4  A    between atoms: O3_4  and  C7_16 
REMARK    5  A    between atoms: O5_6  and  C10_19 
REMARK    6  A    between atoms: N1_7  and  C5_14 
REMARK    7  A    between atoms: N1_7  and  C2_11 
REMARK    8  A    between atoms: N1_7  and  C4_13 
REMARK    9  A    between atoms: N1_7  and  C8_17 
REMARK   10  A    between atoms: N2_8  and  C5_14 
REMARK   11  A    between atoms: N2_8  and  C10_19 
REMARK   12  A    between atoms: N2_8  and  C16_25 
REMARK   13  A    between atoms: N3_9  and  C10_19 
REMARK   14  A    between atoms: C1_10  and  C5_14 
REMARK   15  A    between atoms: C2_11  and  C3_12 
REMARK   16  A    between atoms: C2_11  and  C8_17 
REMARK   17  A    between atoms: C3_12  and  C5_14 
REMARK   18  A    between atoms: C3_12  and  C6_15 
REMARK   19  A    between atoms: C3_12  and  C7_16 
REMARK   20  A    between atoms: C6_15  and  C7_16 
REMARK   21  A    between atoms: C7_16  and  C8_17 
REMARK   22  A    between atoms: C9_18  and  C11_20 
REMARK   23  A    between atoms: C9_18  and  C12_21 
REMARK   24  A    between atoms: C9_18  and  C16_25 
REMARK   25  A    between atoms: C10_19  and  C11_20 
REMARK   26  A    between atoms: C10_19  and  C12_21 
REMARK   27  A    between atoms: C10_19  and  C13_22 
REMARK   28  A    between atoms: C10_19  and  C14_23 
REMARK   29  A    between atoms: C11_20  and  C12_21 
REMARK   30  A    between atoms: C13_22  and  C19_28 
REMARK   31  A    between atoms: C15_24  and  C16_25 
REMARK   32  A    between atoms: C15_24  and  C18_27 
REMARK   33  A    between atoms: C16_25  and  C17_26 
REMARK   34  A    between atoms: C16_25  and  C19_28 
REMARK   35  A    between atoms: C17_26  and  C18_27 
REMARK   36  A    between atoms: C18_27  and  C19_28 
ROOT
HETATM    1  S1  UNL     1     -37.654  13.726  50.157  1.00  0.00    -0.162 SA
HETATM    2  O1  UNL     1     -39.044  11.351  50.354  1.00  0.00    -0.345 OA
HETATM    3  O2  UNL     1     -36.884  11.113  50.517  1.00  0.00    -0.355 OA
HETATM    4  O3  UNL     1     -35.800  12.042  50.473  1.00  0.00     0.000 OA
HETATM    5  O4  UNL     1     -40.357  11.866  50.211  1.00  0.00     0.000 OA
HETATM    6  N1  UNL     1     -37.965  12.435  50.292  1.00  0.00     0.000 N 
HETATM    7  N2  UNL     1     -39.809  13.181  50.088  1.00  0.00     0.000 N 
HETATM    8  C1  UNL     1     -38.280  13.189  50.182  1.00  0.00     0.100 A 
HETATM    9  C2  UNL     1     -36.952  13.304  50.251  1.00  0.00     0.080 A 
HETATM   10  C3  UNL     1     -37.145  12.506  50.334  1.00  0.00     0.103 A 
HETATM   11  C4  UNL     1     -39.049  12.871  50.172  1.00  0.00     0.122 A 
HETATM   12  C5  UNL     1     -38.731  12.110  50.283  1.00  0.00     0.140 A 
HETATM   13  C6  UNL     1     -36.522  14.006  50.194  1.00  0.00     0.064 A 
HETATM   14  C7  UNL     1     -36.151  13.118  50.323  1.00  0.00     0.078 A 
HETATM   15  C8  UNL     1     -36.610  11.887  50.441  1.00  0.00     0.135 A 
HETATM   16  C9  UNL     1     -40.464  12.678  50.107  1.00  0.00     0.027 A 
HETATM   17  C10 UNL     1     -41.223  12.987  50.023  1.00  0.00     0.003 A 
ENDROOT
BRANCH   7  18
HETATM   18  C16 UNL     1     -40.068  14.264  49.942  1.00  0.00     0.003 A 
HETATM   19  C13 UNL     1     -40.420  14.430  49.214  1.00  0.00     0.000 A 
HETATM   20  C11 UNL     1     -40.551  13.823  48.671  1.00  0.00     0.003 A 
HETATM   21  C15 UNL     1     -40.641  15.203  49.030  1.00  0.00     0.000 A 
HETATM   22  N3  UNL     1     -40.895  13.904  47.926  1.00  0.00     0.000 N 
HETATM   23  C17 UNL     1     -40.510  15.811  49.573  1.00  0.00     0.000 A 
HETATM   24  C18 UNL     1     -39.938  14.871  50.485  1.00  0.00     0.000 A 
HETATM   25  O5  UNL     1     -40.918  13.159  47.572  1.00  0.00     0.000 OA
HETATM   26  C12 UNL     1     -40.587  12.617  48.099  1.00  0.00     0.003 A 
HETATM   27  C14 UNL     1     -40.499  11.808  47.969  1.00  0.00     0.000 A 
HETATM   28  C19 UNL     1     -40.159  15.644  50.299  1.00  0.00     0.000 A 
ENDBRANCH   7  18
TORSDOF 36
ENDMDL
