MODEL 1
REMARK VINA RESULT:     184.9      0.000      0.000
REMARK WARNING: 32 MAX_TORS EXCEEDED!!!
REMARK  37 active torsions:
REMARK  status: ('A' for Active; 'I' for Inactive)
REMARK    1  A    between atoms: O1_1  and  C12_15 
REMARK    2  A    between atoms: O1_1  and  C16_19 
REMARK    3  A    between atoms: O2_2  and  C17_20 
REMARK    4  A    between atoms: N1_3  and  C6_9 
REMARK    5  A    between atoms: C1_4  and  C6_9 
REMARK    6  A    between atoms: C1_4  and  C9_12 
REMARK    7  A    between atoms: C2_5  and  C3_6 
REMARK    8  A    between atoms: C2_5  and  C5_8 
REMARK    9  A    between atoms: C2_5  and  C8_11 
REMARK   10  A    between atoms: C2_5  and  C15_18 
REMARK   11  A    between atoms: C3_6  and  C7_10 
REMARK   12  A    between atoms: C3_6  and  C9_12 
REMARK   13  A    between atoms: C3_6  and  C10_13 
REMARK   14  A    between atoms: C4_7  and  C5_8 
REMARK   15  A    between atoms: C4_7  and  C7_10 
REMARK   16  A    between atoms: C4_7  and  C12_15 
REMARK   17  A    between atoms: C5_8  and  C6_9 
REMARK   18  A    between atoms: C5_8  and  C10_13 
REMARK   19  A    between atoms: C6_9  and  C11_14 
REMARK   20  A    between atoms: C7_10  and  C8_11 
REMARK   21  A    between atoms: C7_10  and  C11_14 
REMARK   22  A    between atoms: C7_10  and  C14_17 
REMARK   23  A    between atoms: C7_10  and  C15_18 
REMARK   24  A    between atoms: C8_11  and  C9_12 
REMARK   25  A    between atoms: C8_11  and  C14_17 
REMARK   26  A    between atoms: C8_11  and  C16_19 
REMARK   27  A    between atoms: C9_12  and  C12_15 
REMARK   28  A    between atoms: C9_12  and  C13_16 
REMARK   29  A    between atoms: C9_12  and  C16_19 
REMARK   30  A    between atoms: C9_12  and  C17_20 
REMARK   31  A    between atoms: C11_14  and  C12_15 
REMARK   32  A    between atoms: C12_15  and  C15_18 
REMARK   33  A    between atoms: C12_15  and  C14_17 
REMARK   34  A    between atoms: C13_16  and  C14_17 
REMARK   35  A    between atoms: C13_16  and  C16_19 
REMARK   36  A    between atoms: C14_17  and  C17_20 
REMARK   37  A    between atoms: C16_19  and  C17_20 
ROOT
HETATM    1  O1  UNL     1     -41.300  11.945  49.621  1.00  0.00     0.000 OA
HETATM    2  O2  UNL     1     -41.035  10.739  48.567  1.00  0.00     0.000 OA
HETATM    3  N1  UNL     1     -39.915  15.047  48.284  1.00  0.00     0.000 N 
HETATM    4  C1  UNL     1     -40.161  14.319  48.443  1.00  0.00     0.000 A 
HETATM    5  C2  UNL     1     -40.542  14.168  49.121  1.00  0.00     0.000 A 
HETATM    6  C3  UNL     1     -40.029  13.735  47.925  1.00  0.00     0.000 A 
HETATM    7  C4  UNL     1     -40.674  14.783  49.654  1.00  0.00     0.000 A 
HETATM    8  C5  UNL     1     -40.041  15.633  48.791  1.00  0.00     0.000 A 
HETATM    9  C6  UNL     1     -40.417  15.503  49.469  1.00  0.00     0.000 A 
HETATM   10  C7  UNL     1     -40.790  13.433  49.281  1.00  0.00     0.000 A 
HETATM   11  C8  UNL     1     -40.277  12.999  48.085  1.00  0.00     0.000 A 
HETATM   12  C9  UNL     1     -40.657  12.848  48.763  1.00  0.00     0.000 A 
HETATM   13  C10 UNL     1     -39.535  15.193  47.605  1.00  0.00     0.000 A 
HETATM   14  C11 UNL     1     -41.070  14.633  50.362  1.00  0.00     0.000 A 
HETATM   15  C12 UNL     1     -41.187  13.263  49.984  1.00  0.00     0.000 A 
HETATM   16  C13 UNL     1     -40.133  12.399  47.537  1.00  0.00     0.000 A 
HETATM   17  C14 UNL     1     -40.921  12.087  48.941  1.00  0.00     0.000 A 
HETATM   18  C15 UNL     1     -41.328  13.867  50.528  1.00  0.00     0.000 A 
HETATM   19  C16 UNL     1     -40.786  11.474  48.405  1.00  0.00     0.000 A 
HETATM   20  C17 UNL     1     -40.389  11.631  47.698  1.00  0.00     0.000 A 
ENDROOT
TORSDOF 37
ENDMDL
