MODEL 1
REMARK VINA RESULT:     339.0      0.000      0.000
REMARK WARNING: 32 MAX_TORS EXCEEDED!!!
REMARK  34 active torsions:
REMARK  status: ('A' for Active; 'I' for Inactive)
REMARK    1  A    between atoms: F1_1  and  C11_16 
REMARK    2  A    between atoms: O2_3  and  O3_4 
REMARK    3  A    between atoms: O2_3  and  C17_22 
REMARK    4  A    between atoms: O3_4  and  C18_23 
REMARK    5  A    between atoms: N1_5  and  C3_8 
REMARK    6  A    between atoms: C1_6  and  C5_10 
REMARK    7  A    between atoms: C1_6  and  C6_11 
REMARK    8  A    between atoms: C2_7  and  C5_10 
REMARK    9  A    between atoms: C2_7  and  C8_13 
REMARK   10  A    between atoms: C3_8  and  C5_10 
REMARK   11  A    between atoms: C3_8  and  C4_9 
REMARK   12  A    between atoms: C3_8  and  C7_12 
REMARK   13  A    between atoms: C3_8  and  C9_14 
REMARK   14  A    between atoms: C4_9  and  C6_11 
REMARK   15  A    between atoms: C6_11  and  C7_12 
REMARK   16  A    between atoms: C6_11  and  C8_13 
REMARK   17  A    between atoms: C6_11  and  C15_20 
REMARK   18  A    between atoms: C7_12  and  C13_18 
REMARK   19  A    between atoms: C8_13  and  C9_14 
REMARK   20  A    between atoms: C8_13  and  C11_16 
REMARK   21  A    between atoms: C8_13  and  C13_18 
REMARK   22  A    between atoms: C9_14  and  C10_15 
REMARK   23  A    between atoms: C9_14  and  C13_18 
REMARK   24  A    between atoms: C10_15  and  C11_16 
REMARK   25  A    between atoms: C11_16  and  C13_18 
REMARK   26  A    between atoms: C12_17  and  C16_21 
REMARK   27  A    between atoms: C12_17  and  C17_22 
REMARK   28  A    between atoms: C14_19  and  C15_20 
REMARK   29  A    between atoms: C14_19  and  C17_22 
REMARK   30  A    between atoms: C14_19  and  C18_23 
REMARK   31  A    between atoms: C15_20  and  C16_21 
REMARK   32  A    between atoms: C15_20  and  C17_22 
REMARK   33  A    between atoms: C16_21  and  C18_23 
REMARK   34  A    between atoms: C17_22  and  C18_23 
ROOT
HETATM    1  F1  UNL     1     -40.348  11.633  50.288  1.00  0.00    -0.479 F 
HETATM    2  O1  UNL     1     -38.585  15.254  48.818  1.00  0.00     0.000 OA
HETATM    3  O2  UNL     1     -35.841  15.827  49.664  1.00  0.00     0.000 OA
HETATM    4  O3  UNL     1     -35.754  14.717  50.389  1.00  0.00     0.000 OA
HETATM    5  N1  UNL     1     -40.669  15.769  47.588  1.00  0.00    -0.016 N 
HETATM    6  C1  UNL     1     -40.562  14.390  48.488  1.00  0.00     0.108 A 
HETATM    7  C2  UNL     1     -39.921  14.908  48.448  1.00  0.00     0.169 A 
HETATM    8  C3  UNL     1     -41.257  14.562  48.077  1.00  0.00     0.184 A 
HETATM    9  C4  UNL     1     -39.975  15.597  47.998  1.00  0.00     0.193 A 
HETATM   10  C5  UNL     1     -41.311  15.251  47.627  1.00  0.00     0.213 A 
HETATM   11  C6  UNL     1     -39.227  14.736  48.858  1.00  0.00     0.065 A 
HETATM   12  C7  UNL     1     -40.508  13.701  48.938  1.00  0.00     0.100 A 
HETATM   13  C8  UNL     1     -39.814  13.529  49.348  1.00  0.00     0.089 A 
HETATM   14  C9  UNL     1     -41.150  13.183  48.977  1.00  0.00     0.093 A 
HETATM   15  C10 UNL     1     -39.760  12.840  49.798  1.00  0.00     0.091 A 
HETATM   16  C11 UNL     1     -41.097  12.494  49.427  1.00  0.00     0.091 A 
HETATM   17  C12 UNL     1     -37.891  15.081  49.229  1.00  0.00     0.004 A 
HETATM   18  C13 UNL     1     -40.401  12.322  49.838  1.00  0.00     0.091 A 
HETATM   19  C14 UNL     1     -37.249  15.599  49.189  1.00  0.00     0.000 A 
HETATM   20  C15 UNL     1     -37.837  14.392  49.679  1.00  0.00     0.004 A 
HETATM   21  C16 UNL     1     -36.554  15.427  49.599  1.00  0.00     0.000 A 
HETATM   22  C17 UNL     1     -36.500  14.738  50.049  1.00  0.00     0.000 A 
HETATM   23  C18 UNL     1     -37.142  14.221  50.089  1.00  0.00     0.000 A 
HETATM   24  C19 UNL     1     -35.347  15.389  50.151  1.00  0.00     0.000 A 
ENDROOT
TORSDOF 34
ENDMDL
