MODEL 1
REMARK VINA RESULT:     363.3      0.000      0.000
REMARK WARNING: 32 MAX_TORS EXCEEDED!!!
REMARK  35 active torsions:
REMARK  status: ('A' for Active; 'I' for Inactive)
REMARK    1  A    between atoms: O1_1  and  C10_18 
REMARK    2  A    between atoms: O1_1  and  C17_25 
REMARK    3  A    between atoms: O1_1  and  C19_27 
REMARK    4  A    between atoms: O2_2  and  C12_20 
REMARK    5  A    between atoms: O5_5  and  C8_16 
REMARK    6  A    between atoms: O5_5  and  C14_22 
REMARK    7  A    between atoms: N1_8  and  C18_26 
REMARK    8  A    between atoms: C1_9  and  C5_13 
REMARK    9  A    between atoms: C1_9  and  C6_14 
REMARK   10  A    between atoms: C1_9  and  C11_19 
REMARK   11  A    between atoms: C2_10  and  C3_11 
REMARK   12  A    between atoms: C2_10  and  C6_14 
REMARK   13  A    between atoms: C2_10  and  C7_15 
REMARK   14  A    between atoms: C2_10  and  C8_16 
REMARK   15  A    between atoms: C3_11  and  C5_13 
REMARK   16  A    between atoms: C3_11  and  C6_14 
REMARK   17  A    between atoms: C3_11  and  C12_20 
REMARK   18  A    between atoms: C4_12  and  C5_13 
REMARK   19  A    between atoms: C4_12  and  C8_16 
REMARK   20  A    between atoms: C5_13  and  C7_15 
REMARK   21  A    between atoms: C5_13  and  C10_18 
REMARK   22  A    between atoms: C5_13  and  C13_21 
REMARK   23  A    between atoms: C6_14  and  C7_15 
REMARK   24  A    between atoms: C6_14  and  C17_25 
REMARK   25  A    between atoms: C7_15  and  C11_19 
REMARK   26  A    between atoms: C7_15  and  C13_21 
REMARK   27  A    between atoms: C8_16  and  C9_17 
REMARK   28  A    between atoms: C9_17  and  C11_19 
REMARK   29  A    between atoms: C9_17  and  C14_22 
REMARK   30  A    between atoms: C11_19  and  C12_20 
REMARK   31  A    between atoms: C12_20  and  C18_26 
REMARK   32  A    between atoms: C13_21  and  C16_24 
REMARK   33  A    between atoms: C14_22  and  C18_26 
REMARK   34  A    between atoms: C16_24  and  C17_25 
REMARK   35  A    between atoms: C17_25  and  C19_27 
ROOT
HETATM    1  O1  UNL     1     -37.115  12.418  50.288  1.00  0.00     0.000 OA
HETATM    2  O2  UNL     1     -40.957  12.326  50.429  1.00  0.00     0.000 OA
HETATM    3  O3  UNL     1     -38.744  10.479  50.314  1.00  0.00     0.000 OA
HETATM    4  O4  UNL     1     -41.281  15.349  50.496  1.00  0.00    -0.365 OA
HETATM    5  O5  UNL     1     -39.940  15.836  50.455  1.00  0.00     0.000 OA
HETATM    6  O6  UNL     1     -35.713  10.704  50.205  1.00  0.00    -0.315 OA
HETATM    7  O7  UNL     1     -35.475  12.112  50.222  1.00  0.00    -0.315 OA
HETATM    8  N1  UNL     1     -39.343  14.277  50.404  1.00  0.00     0.000 N 
HETATM    9  C1  UNL     1     -39.060  13.466  50.379  1.00  0.00     0.023 A 
HETATM   10  C2  UNL     1     -38.247  13.326  50.347  1.00  0.00     0.014 A 
HETATM   11  C3  UNL     1     -39.588  12.832  50.388  1.00  0.00     0.013 A 
HETATM   12  C4  UNL     1     -37.719  13.959  50.338  1.00  0.00     0.021 A 
HETATM   13  C5  UNL     1     -37.964  12.551  50.322  1.00  0.00     0.038 A 
HETATM   14  C6  UNL     1     -38.492  11.918  50.330  1.00  0.00     0.020 A 
HETATM   15  C7  UNL     1     -39.303  12.058  50.363  1.00  0.00     0.014 A 
HETATM   16  C8  UNL     1     -38.808  14.904  50.396  1.00  0.00     0.027 A 
HETATM   17  C9  UNL     1     -40.189  14.430  50.439  1.00  0.00     0.069 A 
HETATM   18  C10 UNL     1     -36.907  13.819  50.306  1.00  0.00     0.022 A 
HETATM   19  C11 UNL     1     -40.436  12.965  50.421  1.00  0.00     0.025 A 
HETATM   20  C12 UNL     1     -40.739  13.770  50.447  1.00  0.00     0.046 A 
HETATM   21  C13 UNL     1     -38.208  11.107  50.305  1.00  0.00     0.053 A 
HETATM   22  C14 UNL     1     -39.083  15.682  50.420  1.00  0.00     0.051 A 
HETATM   23  C15 UNL     1     -36.379  14.453  50.298  1.00  0.00    -0.053 A 
HETATM   24  C16 UNL     1     -36.813  11.614  50.263  1.00  0.00     0.166 A 
HETATM   25  C17 UNL     1     -37.363  10.954  50.271  1.00  0.00     0.100 A 
HETATM   26  C18 UNL     1     -40.470  15.205  50.463  1.00  0.00     0.113 A 
HETATM   27  C19 UNL     1     -36.000  11.476  50.230  1.00  0.00     0.234 A 
ENDROOT
TORSDOF 35
ENDMDL
