MODEL 1
REMARK VINA RESULT:     330.3      0.000      0.000
REMARK  32 active torsions:
REMARK  status: ('A' for Active; 'I' for Inactive)
REMARK    1  A    between atoms: O1_1  and  C5_7 
REMARK    2  A    between atoms: O1_1  and  C12_14 
REMARK    3  A    between atoms: O2_2  and  C18_20 
REMARK    4  A    between atoms: C1_3  and  C6_8 
REMARK    5  A    between atoms: C1_3  and  C8_10 
REMARK    6  A    between atoms: C1_3  and  C10_12 
REMARK    7  A    between atoms: C2_4  and  C4_6 
REMARK    8  A    between atoms: C2_4  and  C8_10 
REMARK    9  A    between atoms: C2_4  and  C16_18 
REMARK   10  A    between atoms: C3_5  and  C5_7 
REMARK   11  A    between atoms: C3_5  and  C7_9 
REMARK   12  A    between atoms: C4_6  and  C5_7 
REMARK   13  A    between atoms: C4_6  and  C11_13 
REMARK   14  A    between atoms: C5_7  and  C8_10 
REMARK   15  A    between atoms: C5_7  and  C6_8 
REMARK   16  A    between atoms: C5_7  and  C12_14 
REMARK   17  A    between atoms: C6_8  and  C7_9 
REMARK   18  A    between atoms: C6_8  and  C12_14 
REMARK   19  A    between atoms: C7_9  and  C10_12 
REMARK   20  A    between atoms: C8_10  and  C9_11 
REMARK   21  A    between atoms: C8_10  and  C12_14 
REMARK   22  A    between atoms: C9_11  and  C13_15 
REMARK   23  A    between atoms: C10_12  and  C16_18 
REMARK   24  A    between atoms: C11_13  and  C14_16 
REMARK   25  A    between atoms: C12_14  and  C16_18 
REMARK   26  A    between atoms: C13_15  and  C14_16 
REMARK   27  A    between atoms: C13_15  and  C18_20 
REMARK   28  A    between atoms: C14_16  and  C15_17 
REMARK   29  A    between atoms: C14_16  and  C19_21 
REMARK   30  A    between atoms: C15_17  and  C19_21 
REMARK   31  A    between atoms: C17_19  and  C18_20 
REMARK   32  A    between atoms: C18_20  and  C19_21 
ROOT
HETATM    1  O1  UNL     1     -39.724  15.158  50.258  1.00  0.00     0.000 OA
HETATM    2  O2  UNL     1     -36.014  10.296  50.224  1.00  0.00     0.000 OA
HETATM    3  C1  UNL     1     -39.696  13.282  49.787  1.00  0.00     0.000 A 
HETATM    4  C2  UNL     1     -39.493  14.039  50.047  1.00  0.00     0.000 A 
HETATM    5  C3  UNL     1     -39.140  12.674  49.813  1.00  0.00     0.000 A 
HETATM    6  C4  UNL     1     -38.380  12.822  50.099  1.00  0.00     0.000 A 
HETATM    7  C5  UNL     1     -38.734  14.186  50.332  1.00  0.00     0.000 A 
HETATM    8  C6  UNL     1     -40.151  14.520  49.955  1.00  0.00     0.000 A 
HETATM    9  C7  UNL     1     -40.478  13.303  49.537  1.00  0.00     0.000 A 
HETATM   10  C8  UNL     1     -38.177  13.578  50.359  1.00  0.00     0.000 A 
HETATM   11  C9  UNL     1     -37.792  12.196  50.131  1.00  0.00     0.000 A 
HETATM   12  C10 UNL     1     -40.757  14.067  49.641  1.00  0.00     0.000 A 
HETATM   13  C11 UNL     1     -39.363  11.891  49.539  1.00  0.00     0.000 A 
HETATM   14  C12 UNL     1     -39.290  14.795  50.307  1.00  0.00     0.000 C 
HETATM   15  C13 UNL     1     -38.788  11.252  49.564  1.00  0.00     0.000 A 
HETATM   16  C14 UNL     1     -37.997  11.407  49.862  1.00  0.00     0.000 A 
HETATM   17  C15 UNL     1     -36.973  12.377  50.444  1.00  0.00     0.000 A 
HETATM   18  C16 UNL     1     -40.647  15.179  49.962  1.00  0.00     0.000 A 
HETATM   19  C17 UNL     1     -36.359  11.726  50.478  1.00  0.00     0.000 A 
HETATM   20  C18 UNL     1     -37.397  10.743  49.887  1.00  0.00     0.000 A 
HETATM   21  C19 UNL     1     -36.573  10.903  50.197  1.00  0.00     0.000 A 
HETATM   22  C20 UNL     1     -41.144  15.838  49.969  1.00  0.00     0.000 A 
ENDROOT
TORSDOF 32
ENDMDL
