MODEL 1
REMARK VINA RESULT:     260.4      0.000      0.000
REMARK  28 active torsions:
REMARK  status: ('A' for Active; 'I' for Inactive)
REMARK    1  A    between atoms: N1_1  and  C3_5 
REMARK    2  A    between atoms: N2_2  and  C1_3 
REMARK    3  A    between atoms: N2_2  and  C3_5 
REMARK    4  A    between atoms: N2_2  and  C19_21 
REMARK    5  A    between atoms: C1_3  and  C5_7 
REMARK    6  A    between atoms: C1_3  and  C8_10 
REMARK    7  A    between atoms: C1_3  and  C14_16 
REMARK    8  A    between atoms: C2_4  and  C5_7 
REMARK    9  A    between atoms: C2_4  and  C7_9 
REMARK   10  A    between atoms: C2_4  and  C14_16 
REMARK   11  A    between atoms: C3_5  and  C5_7 
REMARK   12  A    between atoms: C3_5  and  C4_6 
REMARK   13  A    between atoms: C3_5  and  C6_8 
REMARK   14  A    between atoms: C3_5  and  C8_10 
REMARK   15  A    between atoms: C5_7  and  C13_15 
REMARK   16  A    between atoms: C6_8  and  C12_14 
REMARK   17  A    between atoms: C7_9  and  C8_10 
REMARK   18  A    between atoms: C8_10  and  C11_13 
REMARK   19  A    between atoms: C9_11  and  C14_16 
REMARK   20  A    between atoms: C10_12  and  C12_14 
REMARK   21  A    between atoms: C10_12  and  C15_17 
REMARK   22  A    between atoms: C11_13  and  C12_14 
REMARK   23  A    between atoms: C11_13  and  C16_18 
REMARK   24  A    between atoms: C14_16  and  C18_20 
REMARK   25  A    between atoms: C15_17  and  C17_19 
REMARK   26  A    between atoms: C16_18  and  C20_22 
REMARK   27  A    between atoms: C17_19  and  C18_20 
REMARK   28  A    between atoms: C19_21  and  C20_22 
ROOT
HETATM    1  N1  UNL     1     -40.608  15.166  50.382  1.00  0.00     0.000 N 
HETATM    2  N2  UNL     1     -37.987  15.235  50.439  1.00  0.00     0.000 N 
HETATM    3  C1  UNL     1     -39.178  14.345  50.434  1.00  0.00     0.000 A 
HETATM    4  C2  UNL     1     -39.890  13.931  50.428  1.00  0.00     0.000 A 
HETATM    5  C3  UNL     1     -39.178  15.170  50.414  1.00  0.00     0.000 A 
HETATM    6  C4  UNL     1     -40.605  14.342  50.402  1.00  0.00     0.000 A 
HETATM    7  C5  UNL     1     -39.894  15.581  50.388  1.00  0.00     0.000 A 
HETATM    8  C6  UNL     1     -38.463  13.935  50.460  1.00  0.00     0.000 A 
HETATM    9  C7  UNL     1     -38.522  13.112  50.479  1.00  0.00     0.000 A 
HETATM   10  C8  UNL     1     -37.782  14.401  50.464  1.00  0.00     0.000 A 
HETATM   11  C9  UNL     1     -37.916  12.553  50.506  1.00  0.00     0.000 A 
HETATM   12  C10 UNL     1     -37.101  12.677  50.522  1.00  0.00     0.000 A 
HETATM   13  C11 UNL     1     -36.690  13.393  50.513  1.00  0.00     0.000 A 
HETATM   14  C12 UNL     1     -36.993  14.159  50.488  1.00  0.00     0.000 A 
HETATM   15  C13 UNL     1     -41.323  15.577  50.356  1.00  0.00     0.000 A 
HETATM   16  C14 UNL     1     -39.347  12.869  50.466  1.00  0.00     0.000 A 
HETATM   17  C15 UNL     1     -38.092  11.712  50.523  1.00  0.00     0.000 A 
HETATM   18  C16 UNL     1     -36.355  14.736  50.488  1.00  0.00     0.000 A 
HETATM   19  C17 UNL     1     -39.543  12.033  50.482  1.00  0.00     0.000 A 
HETATM   20  C18 UNL     1     -38.911  11.450  50.511  1.00  0.00     0.000 A 
HETATM   21  C19 UNL     1     -36.541  15.575  50.463  1.00  0.00     0.000 A 
HETATM   22  C20 UNL     1     -37.363  15.826  50.439  1.00  0.00     0.000 A 
ENDROOT
TORSDOF 28
ENDMDL
