MODEL 1
REMARK VINA RESULT:     220.7      0.000      0.000
REMARK  14 active torsions:
REMARK  status: ('A' for Active; 'I' for Inactive)
REMARK    1  A    between atoms: N2_4  and  C13_17 
REMARK    2  A    between atoms: C2_6  and  C3_7 
REMARK    3  A    between atoms: C2_6  and  C6_10 
REMARK    4  A    between atoms: C3_7  and  C4_8 
REMARK    5  A    between atoms: C3_7  and  C5_9 
REMARK    6  A    between atoms: C5_9  and  C6_10 
REMARK    7  A    between atoms: C8_12  and  C11_15 
REMARK    8  A    between atoms: C9_13  and  C10_14 
REMARK    9  A    between atoms: C9_13  and  C11_15 
REMARK   10  A    between atoms: C9_13  and  C13_17 
REMARK   11  A    between atoms: C10_14  and  C11_15 
REMARK   12  A    between atoms: C10_14  and  C12_16 
REMARK   13  A    between atoms: C11_15  and  C13_17 
REMARK   14  A    between atoms: C12_16  and  C13_17 
ROOT
HETATM    1  O1  UNL     1     -38.283  12.984  50.503  1.00  0.00     0.000 OA
HETATM    2  O2  UNL     1     -38.969  11.730  50.506  1.00  0.00    -0.363 OA
HETATM    3  N1  UNL     1     -39.751  14.600  50.501  1.00  0.00     0.000 N 
HETATM    4  N2  UNL     1     -35.369  10.577  50.505  1.00  0.00    -0.273 NA
HETATM    5  C1  UNL     1     -39.027  14.204  50.501  1.00  0.00     0.002 A 
HETATM    6  C2  UNL     1     -39.769  15.425  50.500  1.00  0.00     0.000 A 
HETATM    7  C3  UNL     1     -40.455  14.172  50.503  1.00  0.00     0.002 A 
HETATM    8  C4  UNL     1     -39.007  13.380  50.503  1.00  0.00     0.025 A 
HETATM    9  C5  UNL     1     -40.493  15.821  50.500  1.00  0.00     0.000 A 
HETATM   10  C6  UNL     1     -41.179  14.567  50.503  1.00  0.00     0.000 A 
HETATM   11  C7  UNL     1     -38.264  12.160  50.505  1.00  0.00     0.103 A 
HETATM   12  C8  UNL     1     -37.541  11.764  50.505  1.00  0.00     0.101 A 
HETATM   13  C9  UNL     1     -36.836  12.192  50.503  1.00  0.00     0.082 A 
HETATM   14  C10 UNL     1     -37.521  10.939  50.506  1.00  0.00     0.082 A 
HETATM   15  C11 UNL     1     -36.093  10.973  50.505  1.00  0.00     0.080 A 
HETATM   16  C12 UNL     1     -36.112  11.797  50.503  1.00  0.00     0.080 A 
HETATM   17  C13 UNL     1     -36.797  10.543  50.506  1.00  0.00     0.080 A 
ENDROOT
TORSDOF 14
ENDMDL
