MODEL 1
REMARK VINA RESULT:     124.3      0.000      0.000
REMARK  18 active torsions:
REMARK  status: ('A' for Active; 'I' for Inactive)
REMARK    1  A    between atoms: C1_5  and  C4_8 
REMARK    2  A    between atoms: C1_5  and  C5_9 
REMARK    3  A    between atoms: C2_6  and  C3_7 
REMARK    4  A    between atoms: C2_6  and  C6_10 
REMARK    5  A    between atoms: C3_7  and  C4_8 
REMARK    6  A    between atoms: C3_7  and  C7_11 
REMARK    7  A    between atoms: C3_7  and  C8_12 
REMARK    8  A    between atoms: C3_7  and  C9_13 
REMARK    9  A    between atoms: C4_8  and  C6_10 
REMARK   10  A    between atoms: C5_9  and  C6_10 
REMARK   11  A    between atoms: C5_9  and  C7_11 
REMARK   12  A    between atoms: C5_9  and  C9_13 
REMARK   13  A    between atoms: C6_10  and  C8_12 
REMARK   14  A    between atoms: C6_10  and  C9_13 
REMARK   15  A    between atoms: C7_11  and  C8_12 
REMARK   16  A    between atoms: C8_12  and  C9_13 
REMARK   17  A    between atoms: C8_12  and  C10_14 
REMARK   18  A    between atoms: C9_13  and  C11_15 
ROOT
HETATM    1  O1  UNL     1     -41.045  13.917  49.164  1.00  0.00     0.000 OA
HETATM    2  O2  UNL     1     -40.318  13.289  48.105  1.00  0.00     0.000 OA
HETATM    3  O3  UNL     1     -38.188  15.809  48.072  1.00  0.00     0.000 OA
HETATM    4  N1  UNL     1     -41.238  15.175  50.214  1.00  0.00    -0.277 NA
HETATM    5  C1  UNL     1     -40.512  14.546  49.155  1.00  0.00     0.052 A 
HETATM    6  C2  UNL     1     -40.609  15.176  49.680  1.00  0.00     0.061 A 
HETATM    7  C3  UNL     1     -39.882  14.547  48.622  1.00  0.00     0.032 A 
HETATM    8  C4  UNL     1     -40.076  15.806  49.672  1.00  0.00     0.061 A 
HETATM    9  C5  UNL     1     -39.786  13.919  48.097  1.00  0.00     0.016 A 
HETATM   10  C6  UNL     1     -39.350  15.178  48.614  1.00  0.00     0.032 A 
HETATM   11  C7  UNL     1     -38.721  15.179  48.081  1.00  0.00     0.007 A 
HETATM   12  C8  UNL     1     -39.156  13.920  47.564  1.00  0.00     0.007 A 
HETATM   13  C9  UNL     1     -38.623  14.550  47.555  1.00  0.00     0.007 A 
HETATM   14  C10 UNL     1     -40.221  12.660  47.581  1.00  0.00     0.002 A 
HETATM   15  C11 UNL     1     -37.558  15.810  47.538  1.00  0.00     0.001 A 
ENDROOT
TORSDOF 18
ENDMDL
