MODEL 1
REMARK VINA RESULT:     177.1      0.000      0.000
REMARK  19 active torsions:
REMARK  status: ('A' for Active; 'I' for Inactive)
REMARK    1  A    between atoms: N1_1  and  N2_2 
REMARK    2  A    between atoms: N1_1  and  C5_9 
REMARK    3  A    between atoms: N2_2  and  C10_14 
REMARK    4  A    between atoms: N3_3  and  C5_9 
REMARK    5  A    between atoms: N4_4  and  C5_9 
REMARK    6  A    between atoms: C3_7  and  C6_10 
REMARK    7  A    between atoms: C3_7  and  C9_13 
REMARK    8  A    between atoms: C3_7  and  C10_14 
REMARK    9  A    between atoms: C4_8  and  C5_9 
REMARK   10  A    between atoms: C4_8  and  C10_14 
REMARK   11  A    between atoms: C4_8  and  C12_16 
REMARK   12  A    between atoms: C5_9  and  C10_14 
REMARK   13  A    between atoms: C5_9  and  C9_13 
REMARK   14  A    between atoms: C6_10  and  C7_11 
REMARK   15  A    between atoms: C7_11  and  C8_12 
REMARK   16  A    between atoms: C9_13  and  C11_15 
REMARK   17  A    between atoms: C11_15  and  C14_18 
REMARK   18  A    between atoms: C12_16  and  C13_17 
REMARK   19  A    between atoms: C13_17  and  C14_18 
ROOT
HETATM    1  N1  UNL     1     -38.541  13.265  50.523  1.00  0.00     0.000 N 
HETATM    2  N2  UNL     1     -37.466  14.046  50.522  1.00  0.00     0.000 N 
HETATM    3  N3  UNL     1     -38.968  15.685  50.522  1.00  0.00     0.000 N 
HETATM    4  N4  UNL     1     -37.548  15.835  50.521  1.00  0.00    -0.225 NA
HETATM    5  C1  UNL     1     -39.024  12.596  50.524  1.00  0.00     0.004 A 
HETATM    6  C2  UNL     1     -38.687  11.843  50.524  1.00  0.00     0.000 A 
HETATM    7  C3  UNL     1     -38.795  14.044  50.523  1.00  0.00     0.025 A 
HETATM    8  C4  UNL     1     -39.550  14.379  50.523  1.00  0.00     0.024 A 
HETATM    9  C5  UNL     1     -38.128  14.529  50.522  1.00  0.00     0.052 A 
HETATM   10  C6  UNL     1     -37.720  13.265  50.523  1.00  0.00     0.015 A 
HETATM   11  C7  UNL     1     -37.866  11.759  50.524  1.00  0.00     0.001 A 
HETATM   12  C8  UNL     1     -39.170  11.175  50.525  1.00  0.00     0.000 A 
HETATM   13  C9  UNL     1     -39.636  15.200  50.523  1.00  0.00     0.024 A 
HETATM   14  C10 UNL     1     -38.215  15.350  50.522  1.00  0.00     0.061 A 
HETATM   15  C11 UNL     1     -40.236  13.863  50.524  1.00  0.00     0.007 A 
HETATM   16  C12 UNL     1     -40.415  15.561  50.524  1.00  0.00     0.005 A 
HETATM   17  C13 UNL     1     -41.024  14.206  50.525  1.00  0.00     0.003 A 
HETATM   18  C14 UNL     1     -41.115  15.060  50.524  1.00  0.00     0.003 A 
ENDROOT
TORSDOF 19
ENDMDL
