MODEL 1
REMARK VINA RESULT:     347.7      0.000      0.000
REMARK  31 active torsions:
REMARK  status: ('A' for Active; 'I' for Inactive)
REMARK    1  A    between atoms: C1_3  and  C4_6 
REMARK    2  A    between atoms: C1_3  and  C12_14 
REMARK    3  A    between atoms: C1_3  and  C20_22 
REMARK    4  A    between atoms: C2_4  and  C5_7 
REMARK    5  A    between atoms: C2_4  and  C11_13 
REMARK    6  A    between atoms: C2_4  and  C12_14 
REMARK    7  A    between atoms: C3_5  and  C4_6 
REMARK    8  A    between atoms: C3_5  and  C6_8 
REMARK    9  A    between atoms: C3_5  and  C17_19 
REMARK   10  A    between atoms: C4_6  and  C7_9 
REMARK   11  A    between atoms: C4_6  and  C10_12 
REMARK   12  A    between atoms: C4_6  and  C18_20 
REMARK   13  A    between atoms: C5_7  and  C10_12 
REMARK   14  A    between atoms: C6_8  and  C13_15 
REMARK   15  A    between atoms: C7_9  and  C14_16 
REMARK   16  A    between atoms: C8_10  and  C11_13 
REMARK   17  A    between atoms: C8_10  and  C15_17 
REMARK   18  A    between atoms: C9_11  and  C12_14 
REMARK   19  A    between atoms: C9_11  and  C16_18 
REMARK   20  A    between atoms: C10_12  and  C12_14 
REMARK   21  A    between atoms: C10_12  and  C16_18 
REMARK   22  A    between atoms: C10_12  and  C20_22 
REMARK   23  A    between atoms: C11_13  and  C13_15 
REMARK   24  A    between atoms: C11_13  and  C17_19 
REMARK   25  A    between atoms: C12_14  and  C14_16 
REMARK   26  A    between atoms: C12_14  and  C18_20 
REMARK   27  A    between atoms: C13_15  and  C15_17 
REMARK   28  A    between atoms: C14_16  and  C16_18 
REMARK   29  A    between atoms: C15_17  and  C17_19 
REMARK   30  A    between atoms: C16_18  and  C18_20 
REMARK   31  A    between atoms: C19_21  and  C20_22 
ROOT
HETATM    1  N1  UNL     1     -38.853  13.414  49.058  1.00  0.00     0.000 N 
HETATM    2  N2  UNL     1     -40.699  15.234  49.960  1.00  0.00    -0.012 N 
HETATM    3  C1  UNL     1     -39.776  14.323  49.509  1.00  0.00     0.154 A 
HETATM    4  C2  UNL     1     -39.049  14.012  49.539  1.00  0.00     0.050 A 
HETATM    5  C3  UNL     1     -38.113  13.142  49.131  1.00  0.00     0.004 A 
HETATM    6  C4  UNL     1     -39.425  13.168  48.567  1.00  0.00     0.025 A 
HETATM    7  C5  UNL     1     -39.972  14.922  49.990  1.00  0.00     0.195 A 
HETATM    8  C6  UNL     1     -38.062  12.097  48.160  1.00  0.00     0.000 A 
HETATM    9  C7  UNL     1     -38.789  12.111  47.847  1.00  0.00     0.002 A 
HETATM   10  C8  UNL     1     -37.761  12.556  48.731  1.00  0.00     0.000 A 
HETATM   11  C9  UNL     1     -39.396  12.588  48.028  1.00  0.00     0.004 A 
HETATM   12  C10 UNL     1     -40.309  14.037  48.997  1.00  0.00     0.072 A 
HETATM   13  C11 UNL     1     -37.706  13.562  49.713  1.00  0.00     0.003 A 
HETATM   14  C12 UNL     1     -40.113  13.609  48.678  1.00  0.00     0.028 A 
HETATM   15  C13 UNL     1     -36.977  12.349  48.886  1.00  0.00     0.000 A 
HETATM   16  C14 UNL     1     -40.054  12.409  47.563  1.00  0.00     0.004 A 
HETATM   17  C15 UNL     1     -36.922  13.369  49.881  1.00  0.00     0.000 A 
HETATM   18  C16 UNL     1     -40.780  13.444  48.222  1.00  0.00     0.008 A 
HETATM   19  C17 UNL     1     -36.555  12.758  49.465  1.00  0.00     0.000 A 
HETATM   20  C18 UNL     1     -40.750  12.840  47.660  1.00  0.00     0.004 A 
HETATM   21  C19 UNL     1     -40.895  15.832  50.441  1.00  0.00     0.243 A 
HETATM   22  C20 UNL     1     -41.232  14.947  49.449  1.00  0.00     0.215 A 
ENDROOT
TORSDOF 31
ENDMDL
