MODEL 1
REMARK VINA RESULT:      80.9      0.000      0.000
REMARK  6 active torsions:
REMARK  status: ('A' for Active; 'I' for Inactive)
REMARK    1  A    between atoms: O1_1  and  C2_14 
REMARK    2  A    between atoms: O1_1  and  C3_15 
REMARK    3  A    between atoms: O2_2  and  C1_13 
REMARK    4  A    between atoms: O3_3  and  C1_13 
REMARK    5  A    between atoms: C1_13  and  C2_14 
REMARK    6  A    between atoms: C2_14  and  C3_15 
ROOT
HETATM    1  O2  UNL     1     -41.191  14.675  49.552  1.00  0.00     0.000 OA
HETATM    2  O6  UNL     1     -41.327  15.822  50.393  1.00  0.00     0.014 OA
HETATM    3  O8  UNL     1     -40.060  15.176  50.266  1.00  0.00     0.014 OA
HETATM    4  N2  UNL     1     -40.859  15.224  50.070  1.00  0.00     0.529 N 
HETATM    5  C2  UNL     1     -40.723  14.078  49.229  1.00  0.00     0.473 A 
ENDROOT
BRANCH   1   6
HETATM    6  C1  UNL     1     -41.054  13.528  48.711  1.00  0.00     0.457 A 
HETATM    7  O1  UNL     1     -41.327  12.794  48.455  1.00  0.00     0.000 OA
HETATM    8  N1  UNL     1     -40.917  12.381  47.870  1.00  0.00     0.441 N 
HETATM    9  O4  UNL     1     -41.190  11.646  47.613  1.00  0.00     0.002 OA
HETATM   10  O5  UNL     1     -40.232  12.704  47.541  1.00  0.00    -0.046 OA
HETATM   11  C3  UNL     1     -40.369  13.851  48.382  1.00  0.00     0.530 A 
HETATM   12  O3  UNL     1     -40.095  14.586  48.638  1.00  0.00     0.000 OA
HETATM   13  N3  UNL     1     -39.411  14.909  48.309  1.00  0.00     0.553 N 
HETATM   14  O7  UNL     1     -39.137  15.643  48.565  1.00  0.00     0.016 OA
HETATM   15  O9  UNL     1     -39.000  14.496  47.724  1.00  0.00     0.016 OA
ENDBRANCH   1   6
TORSDOF 6
ENDMDL
