MODEL 1
REMARK VINA RESULT:      81.7      0.000      0.000
REMARK  14 active torsions:
REMARK  status: ('A' for Active; 'I' for Inactive)
REMARK    1  A    between atoms: S1_1  and  N3_4 
REMARK    2  A    between atoms: N1_2  and  N2_3 
REMARK    3  A    between atoms: N1_2  and  C4_8 
REMARK    4  A    between atoms: N2_3  and  C4_8 
REMARK    5  A    between atoms: N3_4  and  C9_13 
REMARK    6  A    between atoms: C1_5  and  C6_10 
REMARK    7  A    between atoms: C1_5  and  C8_12 
REMARK    8  A    between atoms: C2_6  and  C5_9 
REMARK    9  A    between atoms: C2_6  and  C7_11 
REMARK   10  A    between atoms: C3_7  and  C9_13 
REMARK   11  A    between atoms: C5_9  and  C6_10 
REMARK   12  A    between atoms: C5_9  and  C8_12 
REMARK   13  A    between atoms: C6_10  and  C7_11 
REMARK   14  A    between atoms: C7_11  and  C8_12 
ROOT
HETATM    1  S1  UNL     1     -36.417  15.801  49.384  1.00  0.00    -0.178 SA
HETATM    2  N1  UNL     1     -38.987  15.817  49.080  1.00  0.00     0.000 N 
HETATM    3  N2  UNL     1     -39.014  15.664  50.399  1.00  0.00     0.000 N 
HETATM    4  N3  UNL     1     -37.224  15.672  50.440  1.00  0.00     0.000 N 
HETATM    5  C1  UNL     1     -39.773  15.784  49.313  1.00  0.00     0.001 A 
HETATM    6  C2  UNL     1     -39.790  15.689  50.132  1.00  0.00     0.001 A 
HETATM    7  C3  UNL     1     -38.520  15.743  49.750  1.00  0.00     0.018 A 
HETATM    8  C4  UNL     1     -37.695  15.747  49.767  1.00  0.00     0.050 A 
HETATM    9  C5  UNL     1     -40.479  15.828  48.889  1.00  0.00     0.000 A 
HETATM   10  C6  UNL     1     -40.512  15.638  50.527  1.00  0.00     0.000 A 
HETATM   11  C7  UNL     1     -41.202  15.777  49.283  1.00  0.00     0.000 A 
HETATM   12  C8  UNL     1     -41.219  15.682  50.102  1.00  0.00     0.000 A 
HETATM   13  C9  UNL     1     -37.197  15.826  49.114  1.00  0.00     0.050 A 
HETATM   14  C10 UNL     1     -36.434  15.706  50.203  1.00  0.00     0.057 A 
ENDROOT
TORSDOF 14
ENDMDL
