MODEL 1
REMARK VINA RESULT:     480.0      0.000      0.000
REMARK  25 active torsions:
REMARK  status: ('A' for Active; 'I' for Inactive)
REMARK    1  A    between atoms: C1_2  and  C8_9 
REMARK    2  A    between atoms: C2_3  and  C7_8 
REMARK    3  A    between atoms: C2_3  and  C9_10 
REMARK    4  A    between atoms: C3_4  and  C6_7 
REMARK    5  A    between atoms: C3_4  and  C10_11 
REMARK    6  A    between atoms: C4_5  and  C6_7 
REMARK    7  A    between atoms: C4_5  and  C8_9 
REMARK    8  A    between atoms: C4_5  and  C10_11 
REMARK    9  A    between atoms: C5_6  and  C7_8 
REMARK   10  A    between atoms: C6_7  and  C7_8 
REMARK   11  A    between atoms: C6_7  and  C9_10 
REMARK   12  A    between atoms: C7_8  and  C12_13 
REMARK   13  A    between atoms: C8_9  and  C14_15 
REMARK   14  A    between atoms: C9_10  and  C10_11 
REMARK   15  A    between atoms: C9_10  and  C11_12 
REMARK   16  A    between atoms: C11_12  and  C13_14 
REMARK   17  A    between atoms: C12_13  and  C18_19 
REMARK   18  A    between atoms: C13_14  and  C14_15 
REMARK   19  A    between atoms: C16_17  and  C21_22 
REMARK   20  A    between atoms: C17_18  and  C18_19 
REMARK   21  A    between atoms: C17_18  and  C20_21 
REMARK   22  A    between atoms: C18_19  and  C19_20 
REMARK   23  A    between atoms: C18_19  and  C21_22 
REMARK   24  A    between atoms: C19_20  and  C20_21 
REMARK   25  A    between atoms: C20_21  and  C21_22 
ROOT
HETATM    1  N1  UNL     1     -38.679  12.852  48.775  1.00  0.00     0.000 N 
HETATM    2  C1  UNL     1     -39.170  12.326  49.178  1.00  0.00     0.000 A 
HETATM    3  C2  UNL     1     -39.743  11.898  48.767  1.00  0.00     0.000 A 
HETATM    4  C3  UNL     1     -40.234  11.372  49.171  1.00  0.00     0.000 A 
HETATM    5  C4  UNL     1     -40.807  10.944  48.760  1.00  0.00     0.000 A 
HETATM    6  C5  UNL     1     -38.106  13.280  49.186  1.00  0.00     0.000 A 
HETATM    7  C6  UNL     1     -39.826  11.997  47.953  1.00  0.00     0.000 A 
HETATM    8  C7  UNL     1     -38.763  12.951  47.959  1.00  0.00     0.000 A 
HETATM    9  C8  UNL     1     -40.137  11.278  50.019  1.00  0.00     0.000 A 
HETATM   10  C9  UNL     1     -40.890  11.043  47.944  1.00  0.00     0.000 A 
HETATM   11  C10 UNL     1     -40.400  11.570  47.541  1.00  0.00     0.000 A 
HETATM   12  C11 UNL     1     -41.323  10.393  49.169  1.00  0.00     0.000 A 
HETATM   13  C12 UNL     1     -37.616  13.807  48.781  1.00  0.00     0.000 A 
HETATM   14  C13 UNL     1     -40.645  10.731  50.446  1.00  0.00     0.000 A 
HETATM   15  C14 UNL     1     -41.242  10.285  50.018  1.00  0.00     0.000 A 
HETATM   16  C15 UNL     1     -37.043  14.234  49.193  1.00  0.00     0.000 A 
HETATM   17  C16 UNL     1     -36.552  14.761  48.790  1.00  0.00     0.000 A 
HETATM   18  C17 UNL     1     -35.979  15.188  49.201  1.00  0.00     0.000 A 
HETATM   19  C18 UNL     1     -36.635  14.860  47.974  1.00  0.00     0.000 A 
HETATM   20  C19 UNL     1     -35.489  15.715  48.796  1.00  0.00     0.000 A 
HETATM   21  C20 UNL     1     -36.145  15.386  47.571  1.00  0.00     0.000 A 
HETATM   22  C21 UNL     1     -35.571  15.814  47.982  1.00  0.00     0.000 A 
ENDROOT
TORSDOF 25
ENDMDL
