MODEL 1
REMARK VINA RESULT:     478.8      0.000      0.000
REMARK WARNING: 32 MAX_TORS EXCEEDED!!!
REMARK  34 active torsions:
REMARK  status: ('A' for Active; 'I' for Inactive)
REMARK    1  A    between atoms: S1_1  and  C2_10 
REMARK    2  A    between atoms: S1_1  and  C3_11 
REMARK    3  A    between atoms: S1_1  and  C5_13 
REMARK    4  A    between atoms: S1_1  and  C12_20 
REMARK    5  A    between atoms: O4_5  and  C9_17 
REMARK    6  A    between atoms: N1_6  and  C5_13 
REMARK    7  A    between atoms: N1_6  and  C2_10 
REMARK    8  A    between atoms: N1_6  and  C4_12 
REMARK    9  A    between atoms: N1_6  and  C11_19 
REMARK   10  A    between atoms: N2_7  and  C7_15 
REMARK   11  A    between atoms: N2_7  and  C5_13 
REMARK   12  A    between atoms: N2_7  and  C8_16 
REMARK   13  A    between atoms: N3_8  and  C7_15 
REMARK   14  A    between atoms: C1_9  and  C5_13 
REMARK   15  A    between atoms: C1_9  and  C12_20 
REMARK   16  A    between atoms: C2_10  and  C7_15 
REMARK   17  A    between atoms: C2_10  and  C12_20 
REMARK   18  A    between atoms: C3_11  and  C4_12 
REMARK   19  A    between atoms: C3_11  and  C5_13 
REMARK   20  A    between atoms: C3_11  and  C9_17 
REMARK   21  A    between atoms: C3_11  and  C10_18 
REMARK   22  A    between atoms: C4_12  and  C11_19 
REMARK   23  A    between atoms: C6_14  and  C7_15 
REMARK   24  A    between atoms: C7_15  and  C14_22 
REMARK   25  A    between atoms: C9_17  and  C10_18 
REMARK   26  A    between atoms: C9_17  and  C11_19 
REMARK   27  A    between atoms: C12_20  and  C13_21 
REMARK   28  A    between atoms: C14_22  and  C19_27 
REMARK   29  A    between atoms: C15_23  and  C16_24 
REMARK   30  A    between atoms: C15_23  and  C18_26 
REMARK   31  A    between atoms: C16_24  and  C17_25 
REMARK   32  A    between atoms: C16_24  and  C19_27 
REMARK   33  A    between atoms: C17_25  and  C18_26 
REMARK   34  A    between atoms: C18_26  and  C19_27 
ROOT
HETATM    1  S1  UNL     1     -36.440  12.578  48.086  1.00  0.00    -0.166 SA
HETATM    2  O1  UNL     1     -38.317  11.721  49.919  1.00  0.00    -0.349 OA
HETATM    3  O2  UNL     1     -39.286  13.054  49.942  1.00  0.00    -0.362 OA
HETATM    4  O3  UNL     1     -36.753  10.257  49.525  1.00  0.00    -0.355 OA
HETATM    5  O4  UNL     1     -35.607  10.268  48.671  1.00  0.00     0.000 OA
HETATM    6  N1  UNL     1     -37.121  11.846  48.970  1.00  0.00     0.000 N 
HETATM    7  N2  UNL     1     -38.270  13.482  48.969  1.00  0.00     0.000 N 
HETATM    8  N3  UNL     1     -38.748  14.697  48.689  1.00  0.00     0.000 N 
HETATM    9  C1  UNL     1     -37.102  12.572  48.579  1.00  0.00     0.089 A 
HETATM   10  C2  UNL     1     -37.798  12.806  48.971  1.00  0.00     0.105 A 
HETATM   11  C3  UNL     1     -36.471  11.404  48.720  1.00  0.00     0.099 A 
HETATM   12  C4  UNL     1     -36.051  11.857  48.173  1.00  0.00     0.076 A 
HETATM   13  C5  UNL     1     -37.817  12.074  49.366  1.00  0.00     0.134 A 
HETATM   14  C6  UNL     1     -38.142  14.162  48.520  1.00  0.00     0.075 A 
HETATM   15  C7  UNL     1     -38.955  13.596  49.415  1.00  0.00     0.119 A 
HETATM   16  C8  UNL     1     -39.249  14.347  49.243  1.00  0.00     0.085 A 
HETATM   17  C9  UNL     1     -35.504  11.245  48.087  1.00  0.00     0.074 A 
HETATM   18  C10 UNL     1     -35.481  12.097  47.627  1.00  0.00     0.059 A 
HETATM   19  C11 UNL     1     -36.276  10.643  48.971  1.00  0.00     0.134 A 
HETATM   20  C12 UNL     1     -37.465  13.821  48.197  1.00  0.00     0.052 A 
HETATM   21  C13 UNL     1     -37.811  14.704  47.993  1.00  0.00     0.018 A 
HETATM   22  C14 UNL     1     -39.928  14.688  49.566  1.00  0.00     0.040 A 
HETATM   23  C15 UNL     1     -40.377  14.269  50.116  1.00  0.00     0.024 A 
HETATM   24  C16 UNL     1     -40.155  15.448  49.340  1.00  0.00     0.024 A 
HETATM   25  C17 UNL     1     -41.055  14.611  50.440  1.00  0.00     0.009 A 
HETATM   26  C18 UNL     1     -40.833  15.789  49.663  1.00  0.00     0.009 A 
HETATM   27  C19 UNL     1     -41.283  15.371  50.213  1.00  0.00     0.009 A 
ENDROOT
TORSDOF 34
ENDMDL
