MODEL 1
REMARK VINA RESULT:     485.1      0.000      0.000
REMARK WARNING: 32 MAX_TORS EXCEEDED!!!
REMARK  41 active torsions:
REMARK  status: ('A' for Active; 'I' for Inactive)
REMARK    1  A    between atoms: O1_1  and  C6_11 
REMARK    2  A    between atoms: O1_1  and  C12_17 
REMARK    3  A    between atoms: O2_2  and  C6_11 
REMARK    4  A    between atoms: O2_2  and  C15_20 
REMARK    5  A    between atoms: O2_2  and  C16_21 
REMARK    6  A    between atoms: O3_3  and  C21_26 
REMARK    7  A    between atoms: O5_5  and  C19_24 
REMARK    8  A    between atoms: C1_6  and  C4_9 
REMARK    9  A    between atoms: C1_6  and  C8_13 
REMARK   10  A    between atoms: C1_6  and  C17_22 
REMARK   11  A    between atoms: C2_7  and  C8_13 
REMARK   12  A    between atoms: C2_7  and  C10_15 
REMARK   13  A    between atoms: C3_8  and  C6_11 
REMARK   14  A    between atoms: C3_8  and  C8_13 
REMARK   15  A    between atoms: C3_8  and  C9_14 
REMARK   16  A    between atoms: C3_8  and  C16_21 
REMARK   17  A    between atoms: C4_9  and  C6_11 
REMARK   18  A    between atoms: C4_9  and  C11_16 
REMARK   19  A    between atoms: C5_10  and  C6_11 
REMARK   20  A    between atoms: C5_10  and  C9_14 
REMARK   21  A    between atoms: C5_10  and  C12_17 
REMARK   22  A    between atoms: C5_10  and  C21_26 
REMARK   23  A    between atoms: C6_11  and  C8_13 
REMARK   24  A    between atoms: C6_11  and  C12_17 
REMARK   25  A    between atoms: C7_12  and  C8_13 
REMARK   26  A    between atoms: C7_12  and  C14_19 
REMARK   27  A    between atoms: C8_13  and  C12_17 
REMARK   28  A    between atoms: C8_13  and  C16_21 
REMARK   29  A    between atoms: C9_14  and  C10_15 
REMARK   30  A    between atoms: C10_15  and  C17_22 
REMARK   31  A    between atoms: C10_15  and  C21_26 
REMARK   32  A    between atoms: C11_16  and  C13_18 
REMARK   33  A    between atoms: C12_17  and  C17_22 
REMARK   34  A    between atoms: C13_18  and  C14_19 
REMARK   35  A    between atoms: C13_18  and  C15_20 
REMARK   36  A    between atoms: C13_18  and  C20_25 
REMARK   37  A    between atoms: C14_19  and  C19_24 
REMARK   38  A    between atoms: C15_20  and  C16_21 
REMARK   39  A    between atoms: C15_20  and  C20_25 
REMARK   40  A    between atoms: C18_23  and  C19_24 
REMARK   41  A    between atoms: C19_24  and  C20_25 
ROOT
HETATM    1  O1  UNL     1     -40.511  13.535  47.873  1.00  0.00     0.000 OA
HETATM    2  O2  UNL     1     -38.938  11.297  48.059  1.00  0.00     0.000 OA
HETATM    3  O3  UNL     1     -41.304  14.117  47.816  1.00  0.00     0.000 OA
HETATM    4  O4  UNL     1     -41.239  15.763  47.708  1.00  0.00    -0.363 OA
HETATM    5  O5  UNL     1     -35.361  10.255  48.210  1.00  0.00     0.000 OA
HETATM    6  C1  UNL     1     -39.352  13.434  47.906  1.00  0.00     0.021 A 
HETATM    7  C2  UNL     1     -38.587  13.742  47.903  1.00  0.00     0.011 A 
HETATM    8  C3  UNL     1     -37.939  13.234  47.952  1.00  0.00     0.003 A 
HETATM    9  C4  UNL     1     -38.055  12.419  48.004  1.00  0.00     0.003 A 
HETATM   10  C5  UNL     1     -39.876  14.063  47.852  1.00  0.00     0.039 A 
HETATM   11  C6  UNL     1     -39.470  12.619  47.958  1.00  0.00     0.008 A 
HETATM   12  C7  UNL     1     -37.388  11.881  48.055  1.00  0.00     0.000 A 
HETATM   13  C8  UNL     1     -38.821  12.112  48.007  1.00  0.00     0.004 A 
HETATM   14  C9  UNL     1     -38.644  14.558  47.847  1.00  0.00     0.010 A 
HETATM   15  C10 UNL     1     -39.439  14.756  47.816  1.00  0.00     0.044 A 
HETATM   16  C11 UNL     1     -37.146  13.567  47.948  1.00  0.00     0.001 A 
HETATM   17  C12 UNL     1     -40.118  13.127  47.910  1.00  0.00     0.024 C 
HETATM   18  C13 UNL     1     -36.589  12.194  48.053  1.00  0.00     0.000 A 
HETATM   19  C14 UNL     1     -36.466  13.043  47.999  1.00  0.00     0.000 A 
HETATM   20  C15 UNL     1     -37.535  10.999  48.111  1.00  0.00     0.000 A 
HETATM   21  C16 UNL     1     -38.156  11.579  48.058  1.00  0.00     0.000 A 
HETATM   22  C17 UNL     1     -40.573  14.501  47.807  1.00  0.00     0.081 A 
HETATM   23  C18 UNL     1     -36.841  10.438  48.164  1.00  0.00     0.000 A 
HETATM   24  C19 UNL     1     -35.880  11.649  48.105  1.00  0.00     0.000 A 
HETATM   25  C20 UNL     1     -36.007  10.765  48.162  1.00  0.00     0.000 A 
HETATM   26  C21 UNL     1     -40.541  15.324  47.753  1.00  0.00     0.115 A 
ENDROOT
TORSDOF 41
ENDMDL
