MODEL 1
REMARK VINA RESULT:     112.5      0.000      0.000
REMARK  21 active torsions:
REMARK  status: ('A' for Active; 'I' for Inactive)
REMARK    1  A    between atoms: S1_1  and  C3_8 
REMARK    2  A    between atoms: S1_1  and  C6_11 
REMARK    3  A    between atoms: O1_2  and  C4_9 
REMARK    4  A    between atoms: O1_2  and  C11_16 
REMARK    5  A    between atoms: O2_3  and  C6_11 
REMARK    6  A    between atoms: N1_4  and  N2_5 
REMARK    7  A    between atoms: N1_4  and  C2_7 
REMARK    8  A    between atoms: C1_6  and  C4_9 
REMARK    9  A    between atoms: C1_6  and  C11_16 
REMARK   10  A    between atoms: C2_7  and  C6_11 
REMARK   11  A    between atoms: C3_8  and  C5_10 
REMARK   12  A    between atoms: C3_8  and  C8_13 
REMARK   13  A    between atoms: C3_8  and  C10_15 
REMARK   14  A    between atoms: C4_9  and  C5_10 
REMARK   15  A    between atoms: C5_10  and  C7_12 
REMARK   16  A    between atoms: C5_10  and  C9_14 
REMARK   17  A    between atoms: C6_11  and  C11_16 
REMARK   18  A    between atoms: C7_12  and  C8_13 
REMARK   19  A    between atoms: C7_12  and  C10_15 
REMARK   20  A    between atoms: C8_13  and  C9_14 
REMARK   21  A    between atoms: C9_14  and  C10_15 
ROOT
HETATM    1  S1  UNL     1     -41.161  13.846  48.412  1.00  0.00    -0.230 SA
HETATM    2  O1  UNL     1     -41.302  11.707  49.631  1.00  0.00     0.000 OA
HETATM    3  O2  UNL     1     -41.150  10.928  47.598  1.00  0.00     0.000 OA
HETATM    4  N1  UNL     1     -41.235  11.681  48.809  1.00  0.00     0.000 N 
HETATM    5  N2  UNL     1     -41.266  10.253  48.851  1.00  0.00    -0.132 NA
HETATM    6  C1  UNL     1     -41.186  12.382  48.378  1.00  0.00     0.042 A 
HETATM    7  C2  UNL     1     -41.204  13.109  48.767  1.00  0.00     0.029 A 
HETATM    8  C3  UNL     1     -41.266  14.026  49.725  1.00  0.00     0.018 A 
HETATM    9  C4  UNL     1     -41.269  13.219  49.576  1.00  0.00     0.025 A 
HETATM   10  C5  UNL     1     -41.199  14.416  49.001  1.00  0.00     0.018 A 
HETATM   11  C6  UNL     1     -41.119  12.356  47.555  1.00  0.00     0.043 A 
HETATM   12  C7  UNL     1     -41.315  14.461  50.424  1.00  0.00     0.023 A 
HETATM   13  C8  UNL     1     -41.181  15.240  48.976  1.00  0.00     0.016 A 
HETATM   14  C9  UNL     1     -41.297  15.285  50.400  1.00  0.00     0.020 A 
HETATM   15  C10 UNL     1     -41.230  15.675  49.676  1.00  0.00     0.020 A 
HETATM   16  C11 UNL     1     -41.217  10.954  48.419  1.00  0.00     0.107 A 
ENDROOT
TORSDOF 21
ENDMDL
