MODEL 1
REMARK VINA RESULT:     210.8      0.000      0.000
REMARK  27 active torsions:
REMARK  status: ('A' for Active; 'I' for Inactive)
REMARK    1  A    between atoms: S1_1  and  C6_10 
REMARK    2  A    between atoms: S1_1  and  C7_11 
REMARK    3  A    between atoms: O1_2  and  C7_11 
REMARK    4  A    between atoms: O2_3  and  C4_8 
REMARK    5  A    between atoms: N1_4  and  C4_8 
REMARK    6  A    between atoms: C1_5  and  C4_8 
REMARK    7  A    between atoms: C2_6  and  C3_7 
REMARK    8  A    between atoms: C2_6  and  C8_12 
REMARK    9  A    between atoms: C2_6  and  C13_17 
REMARK   10  A    between atoms: C3_7  and  C4_8 
REMARK   11  A    between atoms: C3_7  and  C5_9 
REMARK   12  A    between atoms: C3_7  and  C14_18 
REMARK   13  A    between atoms: C4_8  and  C15_19 
REMARK   14  A    between atoms: C4_8  and  C6_10 
REMARK   15  A    between atoms: C5_9  and  C7_11 
REMARK   16  A    between atoms: C5_9  and  C8_12 
REMARK   17  A    between atoms: C5_9  and  C11_15 
REMARK   18  A    between atoms: C6_10  and  C8_12 
REMARK   19  A    between atoms: C6_10  and  C12_16 
REMARK   20  A    between atoms: C7_11  and  C9_13 
REMARK   21  A    between atoms: C7_11  and  C13_17 
REMARK   22  A    between atoms: C8_12  and  C10_14 
REMARK   23  A    between atoms: C8_12  and  C14_18 
REMARK   24  A    between atoms: C9_13  and  C11_15 
REMARK   25  A    between atoms: C10_14  and  C12_16 
REMARK   26  A    between atoms: C11_15  and  C13_17 
REMARK   27  A    between atoms: C12_16  and  C14_18 
ROOT
HETATM    1  S1  UNL     1     -40.335  13.337  48.731  1.00  0.00    -0.212 SA
HETATM    2  O1  UNL     1     -41.051  13.616  48.431  1.00  0.00     0.000 OA
HETATM    3  O2  UNL     1     -41.107  12.505  47.533  1.00  0.00     0.000 OA
HETATM    4  N1  UNL     1     -40.060  11.533  47.535  1.00  0.00    -0.206 NA
HETATM    5  C1  UNL     1     -39.949  13.754  49.329  1.00  0.00     0.028 A 
HETATM    6  C2  UNL     1     -40.279  14.448  49.628  1.00  0.00     0.014 A 
HETATM    7  C3  UNL     1     -39.232  13.475  49.629  1.00  0.00     0.023 A 
HETATM    8  C4  UNL     1     -40.004  12.643  48.432  1.00  0.00     0.072 A 
HETATM    9  C5  UNL     1     -39.892  14.864  50.227  1.00  0.00     0.020 A 
HETATM   10  C6  UNL     1     -38.902  12.780  49.330  1.00  0.00     0.025 A 
HETATM   11  C7  UNL     1     -40.995  14.726  49.328  1.00  0.00     0.014 A 
HETATM   12  C8  UNL     1     -38.846  13.891  50.228  1.00  0.00     0.021 A 
HETATM   13  C9  UNL     1     -40.223  15.558  50.526  1.00  0.00     0.014 A 
HETATM   14  C10 UNL     1     -38.186  12.502  49.630  1.00  0.00     0.016 A 
HETATM   15  C11 UNL     1     -41.325  15.421  49.627  1.00  0.00     0.014 A 
HETATM   16  C12 UNL     1     -38.129  13.612  50.528  1.00  0.00     0.016 A 
HETATM   17  C13 UNL     1     -40.940  15.837  50.226  1.00  0.00     0.014 A 
HETATM   18  C14 UNL     1     -37.799  12.918  50.229  1.00  0.00     0.016 A 
HETATM   19  C15 UNL     1     -40.390  12.227  47.834  1.00  0.00     0.111 A 
ENDROOT
TORSDOF 27
ENDMDL
