MODEL 1
REMARK VINA RESULT:     255.3      0.000      0.000
REMARK  25 active torsions:
REMARK  status: ('A' for Active; 'I' for Inactive)
REMARK    1  A    between atoms: CL1_1  and  C12_16 
REMARK    2  A    between atoms: O1_2  and  C3_7 
REMARK    3  A    between atoms: O1_2  and  C5_9 
REMARK    4  A    between atoms: N2_4  and  C2_6 
REMARK    5  A    between atoms: N2_4  and  C16_20 
REMARK    6  A    between atoms: C1_5  and  C8_12 
REMARK    7  A    between atoms: C2_6  and  C5_9 
REMARK    8  A    between atoms: C2_6  and  C9_13 
REMARK    9  A    between atoms: C4_8  and  C5_9 
REMARK   10  A    between atoms: C4_8  and  C8_12 
REMARK   11  A    between atoms: C4_8  and  C13_17 
REMARK   12  A    between atoms: C5_9  and  C6_10 
REMARK   13  A    between atoms: C5_9  and  C16_20 
REMARK   14  A    between atoms: C6_10  and  C7_11 
REMARK   15  A    between atoms: C6_10  and  C8_12 
REMARK   16  A    between atoms: C6_10  and  C12_16 
REMARK   17  A    between atoms: C6_10  and  C13_17 
REMARK   18  A    between atoms: C7_11  and  C11_15 
REMARK   19  A    between atoms: C7_11  and  C13_17 
REMARK   20  A    between atoms: C8_12  and  C15_19 
REMARK   21  A    between atoms: C9_13  and  C10_14 
REMARK   22  A    between atoms: C11_15  and  C12_16 
REMARK   23  A    between atoms: C12_16  and  C13_17 
REMARK   24  A    between atoms: C14_18  and  C15_19 
REMARK   25  A    between atoms: C15_19  and  C16_20 
ROOT
HETATM    1 CL1  UNL     1     -40.873  10.492  50.017  1.00  0.00    -0.251 Cl
HETATM    2  O1  UNL     1     -38.707  13.581  50.254  1.00  0.00     0.000 OA
HETATM    3  N1  UNL     1     -37.216  15.167  50.417  1.00  0.00    -0.003 N 
HETATM    4  N2  UNL     1     -39.664  14.922  50.151  1.00  0.00     0.000 N 
HETATM    5  C1  UNL     1     -39.523  13.499  50.165  1.00  0.00     0.034 A 
HETATM    6  C2  UNL     1     -38.369  14.333  50.291  1.00  0.00     0.196 A 
HETATM    7  C3  UNL     1     -37.554  14.415  50.380  1.00  0.00     0.246 A 
HETATM    8  C4  UNL     1     -39.860  12.747  50.128  1.00  0.00     0.031 A 
HETATM    9  C5  UNL     1     -40.001  14.170  50.114  1.00  0.00     0.029 A 
HETATM   10  C6  UNL     1     -40.677  12.666  50.039  1.00  0.00     0.031 A 
HETATM   11  C7  UNL     1     -39.382  12.078  50.180  1.00  0.00     0.034 A 
HETATM   12  C8  UNL     1     -40.817  14.088  50.025  1.00  0.00     0.009 A 
HETATM   13  C9  UNL     1     -37.694  15.837  50.366  1.00  0.00     0.246 A 
HETATM   14  C10 UNL     1     -36.399  15.248  50.506  1.00  0.00     0.249 A 
HETATM   15  C11 UNL     1     -41.014  11.914  50.002  1.00  0.00     0.048 A 
HETATM   16  C12 UNL     1     -39.720  11.326  50.143  1.00  0.00     0.048 A 
HETATM   17  C13 UNL     1     -40.536  11.244  50.054  1.00  0.00     0.048 A 
HETATM   18  C14 UNL     1     -41.296  14.758  49.973  1.00  0.00     0.002 A 
HETATM   19  C15 UNL     1     -40.142  15.591  50.099  1.00  0.00     0.002 A 
HETATM   20  C16 UNL     1     -40.958  15.510  50.010  1.00  0.00     0.002 A 
ENDROOT
TORSDOF 25
ENDMDL
