MODEL 1
REMARK VINA RESULT:     276.9      0.000      0.000
REMARK  24 active torsions:
REMARK  status: ('A' for Active; 'I' for Inactive)
REMARK    1  A    between atoms: O1_1  and  O3_3 
REMARK    2  A    between atoms: O1_1  and  C4_8 
REMARK    3  A    between atoms: O1_1  and  C13_17 
REMARK    4  A    between atoms: N1_4  and  C5_9 
REMARK    5  A    between atoms: N1_4  and  C7_11 
REMARK    6  A    between atoms: C1_5  and  C3_7 
REMARK    7  A    between atoms: C1_5  and  C13_17 
REMARK    8  A    between atoms: C2_6  and  C6_10 
REMARK    9  A    between atoms: C3_7  and  C8_12 
REMARK   10  A    between atoms: C3_7  and  C9_13 
REMARK   11  A    between atoms: C4_8  and  C8_12 
REMARK   12  A    between atoms: C4_8  and  C7_11 
REMARK   13  A    between atoms: C5_9  and  C6_10 
REMARK   14  A    between atoms: C5_9  and  C13_17 
REMARK   15  A    between atoms: C6_10  and  C11_15 
REMARK   16  A    between atoms: C7_11  and  C9_13 
REMARK   17  A    between atoms: C7_11  and  C10_14 
REMARK   18  A    between atoms: C9_13  and  C12_16 
REMARK   19  A    between atoms: C10_14  and  C16_20 
REMARK   20  A    between atoms: C11_15  and  C13_17 
REMARK   21  A    between atoms: C12_16  and  C15_19 
REMARK   22  A    between atoms: C14_18  and  C15_19 
REMARK   23  A    between atoms: C15_19  and  C16_20 
REMARK   24  A    between atoms: C15_19  and  C17_21 
ROOT
HETATM    1  O1  UNL     1     -37.654  11.710  50.522  1.00  0.00     0.000 OA
HETATM    2  O2  UNL     1     -35.617  12.081  50.520  1.00  0.00    -0.365 OA
HETATM    3  O3  UNL     1     -36.768  11.235  50.521  1.00  0.00     0.000 OA
HETATM    4  N1  UNL     1     -38.784  13.692  50.523  1.00  0.00     0.000 N 
HETATM    5  C1  UNL     1     -37.745  12.564  50.522  1.00  0.00     0.043 A 
HETATM    6  C2  UNL     1     -38.534  12.905  50.523  1.00  0.00     0.024 A 
HETATM    7  C3  UNL     1     -39.203  12.425  50.523  1.00  0.00     0.006 A 
HETATM    8  C4  UNL     1     -39.132  11.568  50.523  1.00  0.00     0.003 A 
HETATM    9  C5  UNL     1     -37.414  13.320  50.522  1.00  0.00     0.050 A 
HETATM   10  C6  UNL     1     -36.925  12.655  50.521  1.00  0.00     0.082 A 
HETATM   11  C7  UNL     1     -39.868  12.913  50.524  1.00  0.00     0.002 A 
HETATM   12  C8  UNL     1     -38.351  11.208  50.522  1.00  0.00     0.004 A 
HETATM   13  C9  UNL     1     -39.609  13.696  50.524  1.00  0.00     0.002 A 
HETATM   14  C10 UNL     1     -40.170  14.347  50.525  1.00  0.00     0.000 A 
HETATM   15  C11 UNL     1     -36.594  13.411  50.521  1.00  0.00     0.052 A 
HETATM   16  C12 UNL     1     -40.707  12.726  50.525  1.00  0.00     0.000 A 
HETATM   17  C13 UNL     1     -36.437  11.990  50.521  1.00  0.00     0.097 A 
HETATM   18  C14 UNL     1     -39.902  15.126  50.525  1.00  0.00     0.000 A 
HETATM   19  C15 UNL     1     -41.012  14.179  50.526  1.00  0.00     0.000 A 
HETATM   20  C16 UNL     1     -41.283  13.364  50.526  1.00  0.00     0.000 A 
HETATM   21  C17 UNL     1     -40.443  15.749  50.525  1.00  0.00     0.000 A 
ENDROOT
TORSDOF 24
ENDMDL
