MODEL 1
REMARK VINA RESULT:     214.5      0.000      0.000
REMARK  14 active torsions:
REMARK  status: ('A' for Active; 'I' for Inactive)
REMARK    1  A    between atoms: O1_1  and  C1_4 
REMARK    2  A    between atoms: O1_1  and  C9_12 
REMARK    3  A    between atoms: N2_3  and  C1_4 
REMARK    4  A    between atoms: C2_5  and  C5_8 
REMARK    5  A    between atoms: C4_7  and  C5_8 
REMARK    6  A    between atoms: C4_7  and  C9_12 
REMARK    7  A    between atoms: C6_9  and  C13_16 
REMARK    8  A    between atoms: C7_10  and  C9_12 
REMARK    9  A    between atoms: C7_10  and  C12_15 
REMARK   10  A    between atoms: C9_12  and  C10_13 
REMARK   11  A    between atoms: C9_12  and  C13_16 
REMARK   12  A    between atoms: C10_13  and  C11_14 
REMARK   13  A    between atoms: C10_13  and  C12_15 
REMARK   14  A    between atoms: C12_15  and  C13_16 
ROOT
HETATM    1  O1  UNL     1     -40.252  13.246  48.519  1.00  0.00     0.000 OA
HETATM    2  N1  UNL     1     -39.258  14.094  49.526  1.00  0.00     0.000 N 
HETATM    3  N2  UNL     1     -39.749  12.020  49.055  1.00  0.00     0.000 N 
HETATM    4  C1  UNL     1     -39.254  13.269  49.543  1.00  0.00     0.004 A 
HETATM    5  C2  UNL     1     -38.761  14.518  50.030  1.00  0.00     0.018 A 
HETATM    6  C3  UNL     1     -38.763  15.343  50.015  1.00  0.00     0.025 A 
HETATM    7  C4  UNL     1     -39.752  12.845  49.039  1.00  0.00     0.001 A 
HETATM    8  C5  UNL     1     -38.754  12.869  50.062  1.00  0.00     0.004 A 
HETATM    9  C6  UNL     1     -40.246  11.596  48.551  1.00  0.00     0.000 A 
HETATM   10  C7  UNL     1     -40.243  10.772  48.567  1.00  0.00     0.000 A 
HETATM   11  C8  UNL     1     -38.266  15.767  50.518  1.00  0.00    -0.051 A 
HETATM   12  C9  UNL     1     -40.746  11.997  48.032  1.00  0.00     0.000 A 
HETATM   13  C10 UNL     1     -40.740  10.348  48.063  1.00  0.00     0.000 A 
HETATM   14  C11 UNL     1     -39.743  10.371  49.086  1.00  0.00     0.000 A 
HETATM   15  C12 UNL     1     -41.243  11.573  47.529  1.00  0.00     0.000 A 
HETATM   16  C13 UNL     1     -41.241  10.748  47.544  1.00  0.00     0.000 A 
ENDROOT
TORSDOF 14
ENDMDL
