MODEL 1
REMARK VINA RESULT:     148.9      0.000      0.000
REMARK  27 active torsions:
REMARK  status: ('A' for Active; 'I' for Inactive)
REMARK    1  A    between atoms: N1_1  and  N2_2 
REMARK    2  A    between atoms: N1_1  and  C3_6 
REMARK    3  A    between atoms: N2_2  and  N3_3 
REMARK    4  A    between atoms: N3_3  and  C11_14 
REMARK    5  A    between atoms: C2_5  and  C3_6 
REMARK    6  A    between atoms: C2_5  and  C14_17 
REMARK    7  A    between atoms: C3_6  and  C9_12 
REMARK    8  A    between atoms: C4_7  and  C6_9 
REMARK    9  A    between atoms: C4_7  and  C8_11 
REMARK   10  A    between atoms: C4_7  and  C16_19 
REMARK   11  A    between atoms: C5_8  and  C7_10 
REMARK   12  A    between atoms: C5_8  and  C9_12 
REMARK   13  A    between atoms: C5_8  and  C13_16 
REMARK   14  A    between atoms: C6_9  and  C7_10 
REMARK   15  A    between atoms: C6_9  and  C10_13 
REMARK   16  A    between atoms: C6_9  and  C12_15 
REMARK   17  A    between atoms: C7_10  and  C11_14 
REMARK   18  A    between atoms: C7_10  and  C15_18 
REMARK   19  A    between atoms: C8_11  and  C11_14 
REMARK   20  A    between atoms: C9_12  and  C10_13 
REMARK   21  A    between atoms: C9_12  and  C14_17 
REMARK   22  A    between atoms: C10_13  and  C13_16 
REMARK   23  A    between atoms: C11_14  and  C12_15 
REMARK   24  A    between atoms: C11_14  and  C16_19 
REMARK   25  A    between atoms: C12_15  and  C15_18 
REMARK   26  A    between atoms: C13_16  and  C14_17 
REMARK   27  A    between atoms: C15_18  and  C16_19 
ROOT
HETATM    1  N1  UNL     1     -39.345  15.106  48.679  1.00  0.00     0.000 N 
HETATM    2  N2  UNL     1     -38.957  14.682  47.541  1.00  0.00     0.000 N 
HETATM    3  N3  UNL     1     -40.346  14.737  47.763  1.00  0.00     0.327 N 
HETATM    4  C1  UNL     1     -38.553  15.119  48.669  1.00  0.00     0.032 A 
HETATM    5  C2  UNL     1     -38.055  15.347  49.241  1.00  0.00     0.004 A 
HETATM    6  C3  UNL     1     -38.317  14.857  47.965  1.00  0.00     0.032 A 
HETATM    7  C4  UNL     1     -39.835  15.319  49.265  1.00  0.00     0.052 A 
HETATM    8  C5  UNL     1     -38.226  15.619  49.965  1.00  0.00     0.004 A 
HETATM    9  C6  UNL     1     -38.937  15.729  50.296  1.00  0.00     0.007 A 
HETATM   10  C7  UNL     1     -39.653  15.596  49.985  1.00  0.00     0.030 A 
HETATM   11  C8  UNL     1     -39.591  14.836  47.982  1.00  0.00     0.225 A 
HETATM   12  C9  UNL     1     -37.272  15.269  48.991  1.00  0.00     0.004 A 
HETATM   13  C10 UNL     1     -37.626  15.831  50.490  1.00  0.00     0.001 A 
HETATM   14  C11 UNL     1     -40.621  15.215  49.037  1.00  0.00     0.183 A 
HETATM   15  C12 UNL     1     -40.245  15.789  50.525  1.00  0.00     0.032 A 
HETATM   16  C13 UNL     1     -36.660  15.477  49.504  1.00  0.00     0.000 A 
HETATM   17  C14 UNL     1     -36.838  15.760  50.258  1.00  0.00     0.000 A 
HETATM   18  C15 UNL     1     -41.226  15.403  49.565  1.00  0.00     0.034 A 
HETATM   19  C16 UNL     1     -41.037  15.692  50.315  1.00  0.00     0.034 A 
ENDROOT
TORSDOF 27
ENDMDL
