MODEL 1
REMARK VINA RESULT:     127.2      0.000      0.000
REMARK  7 active torsions:
REMARK  status: ('A' for Active; 'I' for Inactive)
REMARK    1  A    between atoms: CL1_1  and  C2_9 
REMARK    2  A    between atoms: F3_4  and  O1_7 
REMARK    3  A    between atoms: F3_4  and  C1_8 
REMARK    4  A    between atoms: O1_7  and  C3_10 
REMARK    5  A    between atoms: O1_7  and  C2_9 
REMARK    6  A    between atoms: C1_8  and  C2_9 
REMARK    7  A    between atoms: C1_8  and  C3_10 
ROOT
HETATM    1 CL1  UNL     1     -38.514  13.555  49.342  1.00  0.00     0.036 Cl
HETATM    2  F1  UNL     1     -40.437  12.969  50.194  1.00  0.00    -0.218 F 
HETATM    3  F2  UNL     1     -39.288  12.860  50.021  1.00  0.00    -0.291 F 
HETATM    4  F3  UNL     1     -40.450  13.911  49.506  1.00  0.00    -0.260 F 
HETATM    5  F4  UNL     1     -39.174  15.546  48.027  1.00  0.00    -0.180 F 
HETATM    6  F5  UNL     1     -38.166  14.636  48.474  1.00  0.00    -0.255 F 
HETATM    7  O1  UNL     1     -39.522  14.465  48.896  1.00  0.00     0.000 OA
HETATM    8  C1  UNL     1     -39.302  13.802  49.334  1.00  0.00     0.376 A 
HETATM    9  C2  UNL     1     -39.869  13.386  49.763  1.00  0.00     0.402 A 
HETATM   10  C3  UNL     1     -38.954  14.882  48.465  1.00  0.00     0.391 A 
ENDROOT
TORSDOF 7
ENDMDL
