MODEL 1
REMARK VINA RESULT:     133.8      0.000      0.000
REMARK  10 active torsions:
REMARK  status: ('A' for Active; 'I' for Inactive)
REMARK    1  A    between atoms: N1_3  and  N2_4 
REMARK    2  A    between atoms: C2_6  and  C3_7 
REMARK    3  A    between atoms: C3_7  and  C11_15 
REMARK    4  A    between atoms: C4_8  and  C5_9 
REMARK    5  A    between atoms: C6_10  and  C7_11 
REMARK    6  A    between atoms: C6_10  and  C10_14 
REMARK    7  A    between atoms: C7_11  and  C9_13 
REMARK    8  A    between atoms: C7_11  and  C11_15 
REMARK    9  A    between atoms: C9_13  and  C10_14 
REMARK   10  A    between atoms: C10_14  and  C11_15 
ROOT
HETATM    1  O1  UNL     1     -39.692  15.837  49.455  1.00  0.00    -0.352 OA
HETATM    2  O2  UNL     1     -37.312  14.233  49.897  1.00  0.00    -0.298 OA
HETATM    3  N1  UNL     1     -38.404  15.210  49.789  1.00  0.00     0.000 N 
HETATM    4  N2  UNL     1     -38.602  14.015  49.228  1.00  0.00     0.000 N 
HETATM    5  C1  UNL     1     -39.279  14.471  49.103  1.00  0.00     0.121 A 
HETATM    6  C2  UNL     1     -39.156  15.209  49.449  1.00  0.00     0.149 A 
HETATM    7  C3  UNL     1     -39.958  14.231  48.701  1.00  0.00     0.048 A 
HETATM    8  C4  UNL     1     -38.062  14.472  49.653  1.00  0.00     0.155 A 
HETATM    9  C5  UNL     1     -38.056  15.838  50.195  1.00  0.00     0.109 A 
HETATM   10  C6  UNL     1     -40.594  14.749  48.618  1.00  0.00     0.030 A 
HETATM   11  C7  UNL     1     -40.001  13.471  48.382  1.00  0.00     0.030 A 
HETATM   12  C8  UNL     1     -37.297  15.758  50.506  1.00  0.00    -0.021 A 
HETATM   13  C9  UNL     1     -41.273  14.509  48.217  1.00  0.00     0.010 A 
HETATM   14  C10 UNL     1     -40.680  13.230  47.980  1.00  0.00     0.010 A 
HETATM   15  C11 UNL     1     -41.316  13.749  47.897  1.00  0.00     0.010 A 
ENDROOT
TORSDOF 10
ENDMDL
