MODEL 1
REMARK VINA RESULT:     247.4      0.000      0.000
REMARK  30 active torsions:
REMARK  status: ('A' for Active; 'I' for Inactive)
REMARK    1  A    between atoms: CL1_1  and  C1_9 
REMARK    2  A    between atoms: CL1_1  and  C3_11 
REMARK    3  A    between atoms: CL2_2  and  C1_9 
REMARK    4  A    between atoms: CL2_2  and  C2_10 
REMARK    5  A    between atoms: CL5_5  and  C12_20 
REMARK    6  A    between atoms: CL6_6  and  C13_21 
REMARK    7  A    between atoms: C1_9  and  C5_13 
REMARK    8  A    between atoms: C1_9  and  C6_14 
REMARK    9  A    between atoms: C1_9  and  C7_15 
REMARK   10  A    between atoms: C2_10  and  C8_16 
REMARK   11  A    between atoms: C2_10  and  C10_18 
REMARK   12  A    between atoms: C2_10  and  C12_20 
REMARK   13  A    between atoms: C3_11  and  C9_17 
REMARK   14  A    between atoms: C3_11  and  C11_19 
REMARK   15  A    between atoms: C3_11  and  C13_21 
REMARK   16  A    between atoms: C4_12  and  C6_14 
REMARK   17  A    between atoms: C4_12  and  C10_18 
REMARK   18  A    between atoms: C4_12  and  C12_20 
REMARK   19  A    between atoms: C5_13  and  C9_17 
REMARK   20  A    between atoms: C5_13  and  C7_15 
REMARK   21  A    between atoms: C5_13  and  C11_19 
REMARK   22  A    between atoms: C5_13  and  C13_21 
REMARK   23  A    between atoms: C6_14  and  C8_16 
REMARK   24  A    between atoms: C6_14  and  C12_20 
REMARK   25  A    between atoms: C7_15  and  C9_17 
REMARK   26  A    between atoms: C7_15  and  C13_21 
REMARK   27  A    between atoms: C8_16  and  C10_18 
REMARK   28  A    between atoms: C9_17  and  C11_19 
REMARK   29  A    between atoms: C10_18  and  C12_20 
REMARK   30  A    between atoms: C11_19  and  C13_21 
ROOT
HETATM    1 CL1  UNL     1     -37.723  13.136  50.486  1.00  0.00    -0.239 Cl
HETATM    2 CL2  UNL     1     -38.106  14.198  50.466  1.00  0.00    -0.239 Cl
HETATM    3 CL3  UNL     1     -39.379  10.282  50.469  1.00  0.00    -0.222 Cl
HETATM    4 CL4  UNL     1     -41.203  15.334  50.372  1.00  0.00    -0.222 Cl
HETATM    5 CL5  UNL     1     -36.902  11.706  50.522  1.00  0.00    -0.228 Cl
HETATM    6 CL6  UNL     1     -38.388  15.823  50.443  1.00  0.00    -0.228 Cl
HETATM    7  O1  UNL     1     -40.201  11.713  50.433  1.00  0.00     0.000 OA
HETATM    8  O2  UNL     1     -40.921  13.708  50.395  1.00  0.00     0.000 OA
HETATM    9  C1  UNL     1     -39.372  13.140  50.442  1.00  0.00     0.095 A 
HETATM   10  C2  UNL     1     -38.962  12.424  50.460  1.00  0.00     0.097 A 
HETATM   11  C3  UNL     1     -39.513  13.953  50.431  1.00  0.00     0.097 A 
HETATM   12  C4  UNL     1     -39.375  11.711  50.455  1.00  0.00     0.116 A 
HETATM   13  C5  UNL     1     -40.287  14.236  50.407  1.00  0.00     0.116 A 
HETATM   14  C6  UNL     1     -38.136  12.423  50.482  1.00  0.00     0.092 A 
HETATM   15  C7  UNL     1     -38.881  14.481  50.443  1.00  0.00     0.092 A 
HETATM   16  C8  UNL     1     -38.965  10.995  50.473  1.00  0.00     0.116 A 
HETATM   17  C9  UNL     1     -40.428  15.049  50.396  1.00  0.00     0.116 A 
HETATM   18  C10 UNL     1     -37.726  11.707  50.500  1.00  0.00     0.106 A 
HETATM   19  C11 UNL     1     -39.022  15.294  50.431  1.00  0.00     0.106 A 
HETATM   20  C12 UNL     1     -38.141  10.994  50.495  1.00  0.00     0.114 A 
HETATM   21  C13 UNL     1     -39.796  15.578  50.408  1.00  0.00     0.114 A 
ENDROOT
TORSDOF 30
ENDMDL
