MODEL 1
REMARK VINA RESULT:     287.7      0.000      0.000
REMARK  26 active torsions:
REMARK  status: ('A' for Active; 'I' for Inactive)
REMARK    1  A    between atoms: O1_1  and  C4_8 
REMARK    2  A    between atoms: O3_3  and  C15_19 
REMARK    3  A    between atoms: C2_6  and  C6_10 
REMARK    4  A    between atoms: C2_6  and  C13_17 
REMARK    5  A    between atoms: C3_7  and  C7_11 
REMARK    6  A    between atoms: C3_7  and  C8_12 
REMARK    7  A    between atoms: C4_8  and  C8_12 
REMARK    8  A    between atoms: C4_8  and  C12_16 
REMARK    9  A    between atoms: C5_9  and  C10_14 
REMARK   10  A    between atoms: C5_9  and  C15_19 
REMARK   11  A    between atoms: C6_10  and  C10_14 
REMARK   12  A    between atoms: C6_10  and  C20_24 
REMARK   13  A    between atoms: C7_11  and  C9_13 
REMARK   14  A    between atoms: C7_11  and  C10_14 
REMARK   15  A    between atoms: C7_11  and  C12_16 
REMARK   16  A    between atoms: C8_12  and  C14_18 
REMARK   17  A    between atoms: C11_15  and  C13_17 
REMARK   18  A    between atoms: C11_15  and  C21_25 
REMARK   19  A    between atoms: C12_16  and  C18_22 
REMARK   20  A    between atoms: C13_17  and  C15_19 
REMARK   21  A    between atoms: C14_18  and  C17_21 
REMARK   22  A    between atoms: C15_19  and  C16_20 
REMARK   23  A    between atoms: C15_19  and  C21_25 
REMARK   24  A    between atoms: C16_20  and  C20_24 
REMARK   25  A    between atoms: C17_21  and  C18_22 
REMARK   26  A    between atoms: C19_23  and  C20_24 
ROOT
HETATM    1  O1  UNL     1     -38.217  15.347  50.512  1.00  0.00     0.000 OA
HETATM    2  O2  UNL     1     -35.729  11.445  50.462  1.00  0.00    -0.361 OA
HETATM    3  O3  UNL     1     -35.602  12.868  50.475  1.00  0.00     0.000 OA
HETATM    4  N1  UNL     1     -38.881  10.995  50.473  1.00  0.00    -0.008 N 
HETATM    5  C1  UNL     1     -39.277  13.826  50.502  1.00  0.00     0.027 A 
HETATM    6  C2  UNL     1     -38.454  13.879  50.499  1.00  0.00     0.031 A 
HETATM    7  C3  UNL     1     -39.832  14.436  50.511  1.00  0.00     0.006 A 
HETATM    8  C4  UNL     1     -39.700  15.251  50.518  1.00  0.00     0.002 A 
HETATM    9  C5  UNL     1     -37.982  14.556  50.503  1.00  0.00     0.011 A 
HETATM   10  C6  UNL     1     -39.079  12.411  50.488  1.00  0.00     0.156 A 
HETATM   11  C7  UNL     1     -39.587  13.061  50.497  1.00  0.00     0.051 A 
HETATM   12  C8  UNL     1     -38.982  15.656  50.518  1.00  0.00     0.001 A 
HETATM   13  C9  UNL     1     -39.389  11.646  50.482  1.00  0.00     0.217 A 
HETATM   14  C10 UNL     1     -38.101  13.095  50.489  1.00  0.00     0.048 A 
HETATM   15  C11 UNL     1     -37.246  13.016  50.484  1.00  0.00     0.049 A 
HETATM   16  C12 UNL     1     -40.630  14.118  50.512  1.00  0.00     0.005 A 
HETATM   17  C13 UNL     1     -37.124  14.496  50.498  1.00  0.00     0.011 A 
HETATM   18  C14 UNL     1     -40.358  15.804  50.527  1.00  0.00     0.000 A 
HETATM   19  C15 UNL     1     -36.754  13.721  50.489  1.00  0.00     0.048 A 
HETATM   20  C16 UNL     1     -36.898  12.268  50.476  1.00  0.00     0.109 A 
HETATM   21  C17 UNL     1     -41.300  14.656  50.520  1.00  0.00     0.000 A 
HETATM   22  C18 UNL     1     -41.164  15.505  50.528  1.00  0.00     0.000 A 
HETATM   23  C19 UNL     1     -39.190  10.231  50.468  1.00  0.00     0.247 A 
HETATM   24  C20 UNL     1     -38.064  11.111  50.470  1.00  0.00     0.232 A 
HETATM   25  C21 UNL     1     -36.076  12.194  50.471  1.00  0.00     0.117 A 
ENDROOT
TORSDOF 26
ENDMDL
