MODEL 1
REMARK VINA RESULT:     198.7      0.000      0.000
REMARK  19 active torsions:
REMARK  status: ('A' for Active; 'I' for Inactive)
REMARK    1  A    between atoms: S1_1  and  O5_8 
REMARK    2  A    between atoms: S1_1  and  C3_12 
REMARK    3  A    between atoms: S1_1  and  C10_19 
REMARK    4  A    between atoms: S2_2  and  O3_6 
REMARK    5  A    between atoms: S2_2  and  O4_7 
REMARK    6  A    between atoms: S2_2  and  C1_10 
REMARK    7  A    between atoms: S2_2  and  C2_11 
REMARK    8  A    between atoms: S2_2  and  C4_13 
REMARK    9  A    between atoms: S2_2  and  C9_18 
REMARK   10  A    between atoms: P1_3  and  C2_11 
REMARK   11  A    between atoms: O1_4  and  O6_9 
REMARK   12  A    between atoms: O1_4  and  C4_13 
REMARK   13  A    between atoms: O3_6  and  O4_7 
REMARK   14  A    between atoms: O4_7  and  C9_18 
REMARK   15  A    between atoms: O6_9  and  C3_12 
REMARK   16  A    between atoms: O6_9  and  C5_14 
REMARK   17  A    between atoms: C1_10  and  C4_13 
REMARK   18  A    between atoms: C2_11  and  C3_12 
REMARK   19  A    between atoms: C3_12  and  C4_13 
ROOT
HETATM    1  S1  UNL     1     -40.578  14.283  49.071  1.00  0.00    -0.187 SA
HETATM    2  S2  UNL     1     -39.977  13.896  49.993  1.00  0.00    -0.187 SA
HETATM    3  P1  UNL     1     -40.207  14.639  49.715  1.00  0.00    -0.036 P 
HETATM    4  O1  UNL     1     -40.922  12.285  48.261  1.00  0.00     0.000 OA
HETATM    5  O2  UNL     1     -39.783  11.712  50.033  1.00  0.00     0.000 OA
HETATM    6  O3  UNL     1     -39.836  14.994  50.361  1.00  0.00     0.000 OA
HETATM    7  O4  UNL     1     -40.437  15.381  49.438  1.00  0.00     0.000 OA
HETATM    8  O5  UNL     1     -41.320  13.571  47.781  1.00  0.00     0.000 OA
HETATM    9  O6  UNL     1     -40.538  11.820  48.824  1.00  0.00     0.000 OA
HETATM   10  C1  UNL     1     -40.565  13.462  48.988  1.00  0.00     0.068 A 
HETATM   11  C2  UNL     1     -40.181  12.997  49.551  1.00  0.00     0.068 A 
HETATM   12  C3  UNL     1     -40.935  13.106  48.344  1.00  0.00     0.062 A 
HETATM   13  C4  UNL     1     -40.167  12.177  49.470  1.00  0.00     0.062 A 
HETATM   14  C5  UNL     1     -41.293  11.928  47.616  1.00  0.00     0.037 A 
HETATM   15  C6  UNL     1     -39.769  10.891  49.951  1.00  0.00     0.037 A 
HETATM   16  C7  UNL     1     -41.280  11.108  47.534  1.00  0.00    -0.030 A 
HETATM   17  C8  UNL     1     -39.385  10.426  50.514  1.00  0.00    -0.030 A 
HETATM   18  C9  UNL     1     -39.849  15.816  50.443  1.00  0.00     0.068 A 
HETATM   19  C10 UNL     1     -40.873  15.444  48.740  1.00  0.00     0.068 A 
ENDROOT
TORSDOF 19
ENDMDL
