MODEL 1
REMARK VINA RESULT:     349.6      0.000      0.000
REMARK WARNING: 32 MAX_TORS EXCEEDED!!!
REMARK  39 active torsions:
REMARK  status: ('A' for Active; 'I' for Inactive)
REMARK    1  A    between atoms: S1_1  and  N1_3 
REMARK    2  A    between atoms: S1_1  and  C4_8 
REMARK    3  A    between atoms: N1_3  and  C6_10 
REMARK    4  A    between atoms: N1_3  and  C7_11 
REMARK    5  A    between atoms: C1_5  and  C4_8 
REMARK    6  A    between atoms: C1_5  and  C9_13 
REMARK    7  A    between atoms: C2_6  and  C5_9 
REMARK    8  A    between atoms: C2_6  and  C8_12 
REMARK    9  A    between atoms: C2_6  and  C9_13 
REMARK   10  A    between atoms: C2_6  and  C11_15 
REMARK   11  A    between atoms: C3_7  and  C4_8 
REMARK   12  A    between atoms: C3_7  and  C7_11 
REMARK   13  A    between atoms: C3_7  and  C13_17 
REMARK   14  A    between atoms: C3_7  and  C15_19 
REMARK   15  A    between atoms: C4_8  and  C7_11 
REMARK   16  A    between atoms: C4_8  and  C5_9 
REMARK   17  A    between atoms: C4_8  and  C6_10 
REMARK   18  A    between atoms: C4_8  and  C14_18 
REMARK   19  A    between atoms: C4_8  and  C17_21 
REMARK   20  A    between atoms: C5_9  and  C9_13 
REMARK   21  A    between atoms: C5_9  and  C10_14 
REMARK   22  A    between atoms: C5_9  and  C16_20 
REMARK   23  A    between atoms: C6_10  and  C8_12 
REMARK   24  A    between atoms: C6_10  and  C12_16 
REMARK   25  A    between atoms: C6_10  and  C15_19 
REMARK   26  A    between atoms: C7_11  and  C9_13 
REMARK   27  A    between atoms: C7_11  and  C16_20 
REMARK   28  A    between atoms: C8_12  and  C13_17 
REMARK   29  A    between atoms: C8_12  and  C18_22 
REMARK   30  A    between atoms: C9_13  and  C14_18 
REMARK   31  A    between atoms: C9_13  and  C17_21 
REMARK   32  A    between atoms: C10_14  and  C11_15 
REMARK   33  A    between atoms: C12_16  and  C13_17 
REMARK   34  A    between atoms: C12_16  and  C19_23 
REMARK   35  A    between atoms: C13_17  and  C15_19 
REMARK   36  A    between atoms: C14_18  and  C16_20 
REMARK   37  A    between atoms: C15_19  and  C18_22 
REMARK   38  A    between atoms: C15_19  and  C19_23 
REMARK   39  A    between atoms: C16_20  and  C17_21 
ROOT
HETATM    1  S1  UNL     1     -39.662  14.612  49.110  1.00  0.00    -0.237 SA
HETATM    2  O1  UNL     1     -39.862  11.023  48.327  1.00  0.00     0.000 OA
HETATM    3  N1  UNL     1     -38.657  13.430  49.428  1.00  0.00     0.000 N 
HETATM    4  N2  UNL     1     -36.979  12.395  50.136  1.00  0.00     0.000 N 
HETATM    5  C1  UNL     1     -37.481  12.986  49.977  1.00  0.00     0.007 A 
HETATM    6  C2  UNL     1     -38.155  12.839  49.587  1.00  0.00     0.012 A 
HETATM    7  C3  UNL     1     -39.331  13.283  49.038  1.00  0.00     0.016 A 
HETATM    8  C4  UNL     1     -38.486  14.168  49.659  1.00  0.00     0.012 A 
HETATM    9  C5  UNL     1     -37.310  13.724  50.208  1.00  0.00     0.009 A 
HETATM   10  C6  UNL     1     -39.834  13.874  48.879  1.00  0.00     0.018 A 
HETATM   11  C7  UNL     1     -38.989  14.759  49.500  1.00  0.00     0.017 A 
HETATM   12  C8  UNL     1     -39.499  12.511  48.803  1.00  0.00     0.021 A 
HETATM   13  C9  UNL     1     -37.782  14.309  50.065  1.00  0.00     0.016 A 
HETATM   14  C10 UNL     1     -36.305  12.542  50.526  1.00  0.00     0.002 A 
HETATM   15  C11 UNL     1     -37.150  11.657  49.905  1.00  0.00     0.002 A 
HETATM   16  C12 UNL     1     -40.199  12.351  48.396  1.00  0.00     0.022 A 
HETATM   17  C13 UNL     1     -40.538  13.734  48.473  1.00  0.00     0.019 A 
HETATM   18  C14 UNL     1     -38.822  15.533  49.735  1.00  0.00     0.017 A 
HETATM   19  C15 UNL     1     -40.722  12.967  48.230  1.00  0.00     0.022 A 
HETATM   20  C16 UNL     1     -37.598  15.076  50.308  1.00  0.00     0.018 A 
HETATM   21  C17 UNL     1     -38.122  15.692  50.142  1.00  0.00     0.019 A 
HETATM   22  C18 UNL     1     -40.367  11.612  48.166  1.00  0.00     0.021 A 
HETATM   23  C19 UNL     1     -41.039  11.462  47.776  1.00  0.00     0.022 A 
HETATM   24  C20 UNL     1     -41.208  10.724  47.546  1.00  0.00    -0.052 A 
ENDROOT
TORSDOF 39
ENDMDL
