MODEL 1
REMARK VINA RESULT:      32.9      0.000      0.000
REMARK  9 active torsions:
REMARK  status: ('A' for Active; 'I' for Inactive)
REMARK    1  A    between atoms: N1_1  and  C1_3 
REMARK    2  A    between atoms: C2_4  and  C8_10 
REMARK    3  A    between atoms: C3_5  and  C4_6 
REMARK    4  A    between atoms: C4_6  and  C5_7 
REMARK    5  A    between atoms: C4_6  and  C7_9 
REMARK    6  A    between atoms: C5_7  and  C6_8 
REMARK    7  A    between atoms: C5_7  and  C8_10 
REMARK    8  A    between atoms: C6_8  and  C7_9 
REMARK    9  A    between atoms: C7_9  and  C8_10 
ROOT
HETATM    1  N1  UNL     1     -41.321  12.701  47.565  1.00  0.00    -0.165 NA
HETATM    2  N2  UNL     1     -41.263  11.884  47.662  1.00  0.00    -0.209 NA
HETATM    3  C1  UNL     1     -41.322  14.017  48.121  1.00  0.00     0.090 A 
HETATM    4  C2  UNL     1     -41.265  14.516  48.776  1.00  0.00     0.043 A 
HETATM    5  C3  UNL     1     -41.264  13.200  48.219  1.00  0.00     0.147 A 
HETATM    6  C4  UNL     1     -41.150  14.197  49.529  1.00  0.00     0.043 A 
HETATM    7  C5  UNL     1     -41.323  15.333  48.679  1.00  0.00     0.022 A 
HETATM    8  C6  UNL     1     -41.094  14.696  50.184  1.00  0.00     0.010 A 
HETATM    9  C7  UNL     1     -41.266  15.831  49.334  1.00  0.00     0.010 A 
HETATM   10  C8  UNL     1     -41.152  15.513  50.085  1.00  0.00     0.010 A 
ENDROOT
TORSDOF 9
ENDMDL
