MODEL 1
REMARK VINA RESULT:     419.3      0.000      0.000
REMARK WARNING: 32 MAX_TORS EXCEEDED!!!
REMARK  33 active torsions:
REMARK  status: ('A' for Active; 'I' for Inactive)
REMARK    1  A    between atoms: O1_1  and  C16_20 
REMARK    2  A    between atoms: O2_2  and  C13_17 
REMARK    3  A    between atoms: O3_3  and  C17_21 
REMARK    4  A    between atoms: N1_4  and  C9_13 
REMARK    5  A    between atoms: C1_5  and  C7_11 
REMARK    6  A    between atoms: C2_6  and  C3_7 
REMARK    7  A    between atoms: C2_6  and  C4_8 
REMARK    8  A    between atoms: C2_6  and  C6_10 
REMARK    9  A    between atoms: C3_7  and  C4_8 
REMARK   10  A    between atoms: C3_7  and  C5_9 
REMARK   11  A    between atoms: C4_8  and  C8_12 
REMARK   12  A    between atoms: C4_8  and  C9_13 
REMARK   13  A    between atoms: C5_9  and  C6_10 
REMARK   14  A    between atoms: C6_10  and  C7_11 
REMARK   15  A    between atoms: C7_11  and  C8_12 
REMARK   16  A    between atoms: C10_14  and  C14_18 
REMARK   17  A    between atoms: C10_14  and  C15_19 
REMARK   18  A    between atoms: C11_15  and  C16_20 
REMARK   19  A    between atoms: C11_15  and  C17_21 
REMARK   20  A    between atoms: C12_16  and  C13_17 
REMARK   21  A    between atoms: C12_16  and  C15_19 
REMARK   22  A    between atoms: C12_16  and  C18_22 
REMARK   23  A    between atoms: C13_17  and  C15_19 
REMARK   24  A    between atoms: C13_17  and  C14_18 
REMARK   25  A    between atoms: C13_17  and  C19_23 
REMARK   26  A    between atoms: C14_18  and  C16_20 
REMARK   27  A    between atoms: C15_19  and  C17_21 
REMARK   28  A    between atoms: C16_20  and  C22_26 
REMARK   29  A    between atoms: C17_21  and  C23_27 
REMARK   30  A    between atoms: C18_22  and  C20_24 
REMARK   31  A    between atoms: C19_23  and  C21_25 
REMARK   32  A    between atoms: C20_24  and  C22_26 
REMARK   33  A    between atoms: C21_25  and  C23_27 
ROOT
HETATM    1  O1  UNL     1     -38.521  13.391  48.968  1.00  0.00     0.000 OA
HETATM    2  O2  UNL     1     -40.988  12.347  47.677  1.00  0.00     0.000 OA
HETATM    3  O3  UNL     1     -38.278  11.989  48.846  1.00  0.00     0.000 OA
HETATM    4  N1  UNL     1     -36.793  14.337  49.909  1.00  0.00     0.000 N 
HETATM    5  C1  UNL     1     -36.934  15.147  49.979  1.00  0.00     0.000 A 
HETATM    6  C2  UNL     1     -36.053  14.435  50.260  1.00  0.00     0.000 A 
HETATM    7  C3  UNL     1     -37.533  14.239  49.557  1.00  0.00     0.000 A 
HETATM    8  C4  UNL     1     -36.652  13.527  49.838  1.00  0.00     0.000 C 
HETATM    9  C5  UNL     1     -37.645  15.467  49.710  1.00  0.00     0.000 A 
HETATM   10  C6  UNL     1     -36.364  15.637  50.319  1.00  0.00     0.000 A 
HETATM   11  C7  UNL     1     -35.805  15.186  50.497  1.00  0.00     0.000 A 
HETATM   12  C8  UNL     1     -35.562  13.783  50.375  1.00  0.00     0.000 A 
HETATM   13  C9  UNL     1     -37.781  13.489  49.320  1.00  0.00     0.000 A 
HETATM   14  C10 UNL     1     -39.509  12.543  48.380  1.00  0.00     0.000 A 
HETATM   15  C11 UNL     1     -38.770  12.641  48.731  1.00  0.00     0.000 A 
HETATM   16  C12 UNL     1     -40.001  13.196  48.265  1.00  0.00     0.000 A 
HETATM   17  C13 UNL     1     -39.757  11.793  48.143  1.00  0.00     0.000 A 
HETATM   18  C14 UNL     1     -40.741  13.098  47.913  1.00  0.00     0.000 A 
HETATM   19  C15 UNL     1     -40.497  11.695  47.791  1.00  0.00     0.000 A 
HETATM   20  C16 UNL     1     -39.731  13.971  48.516  1.00  0.00     0.000 A 
HETATM   21  C17 UNL     1     -39.236  11.121  48.267  1.00  0.00     0.000 A 
HETATM   22  C18 UNL     1     -41.262  13.769  47.789  1.00  0.00     0.000 A 
HETATM   23  C19 UNL     1     -40.767  10.918  47.540  1.00  0.00     0.000 A 
HETATM   24  C20 UNL     1     -40.239  14.655  48.399  1.00  0.00     0.000 A 
HETATM   25  C21 UNL     1     -39.489  10.337  48.023  1.00  0.00     0.000 A 
HETATM   26  C22 UNL     1     -41.009  14.553  48.033  1.00  0.00     0.000 A 
HETATM   27  C23 UNL     1     -40.259  10.235  47.657  1.00  0.00     0.000 A 
ENDROOT
TORSDOF 33
ENDMDL
