MODEL 1
REMARK VINA RESULT:     251.1      0.000      0.000
REMARK  28 active torsions:
REMARK  status: ('A' for Active; 'I' for Inactive)
REMARK    1  A    between atoms: O1_1  and  C11_13 
REMARK    2  A    between atoms: O2_2  and  C17_19 
REMARK    3  A    between atoms: C1_3  and  C4_6 
REMARK    4  A    between atoms: C1_3  and  C8_10 
REMARK    5  A    between atoms: C1_3  and  C9_11 
REMARK    6  A    between atoms: C2_4  and  C8_10 
REMARK    7  A    between atoms: C2_4  and  C9_11 
REMARK    8  A    between atoms: C3_5  and  C6_8 
REMARK    9  A    between atoms: C3_5  and  C7_9 
REMARK   10  A    between atoms: C4_6  and  C6_8 
REMARK   11  A    between atoms: C4_6  and  C10_12 
REMARK   12  A    between atoms: C5_7  and  C6_8 
REMARK   13  A    between atoms: C5_7  and  C7_9 
REMARK   14  A    between atoms: C5_7  and  C11_13 
REMARK   15  A    between atoms: C6_8  and  C8_10 
REMARK   16  A    between atoms: C6_8  and  C11_13 
REMARK   17  A    between atoms: C7_9  and  C9_11 
REMARK   18  A    between atoms: C8_10  and  C11_13 
REMARK   19  A    between atoms: C8_10  and  C12_14 
REMARK   20  A    between atoms: C10_12  and  C14_16 
REMARK   21  A    between atoms: C12_14  and  C13_15 
REMARK   22  A    between atoms: C13_15  and  C14_16 
REMARK   23  A    between atoms: C13_15  and  C16_18 
REMARK   24  A    between atoms: C14_16  and  C15_17 
REMARK   25  A    between atoms: C14_16  and  C18_20 
REMARK   26  A    between atoms: C15_17  and  C18_20 
REMARK   27  A    between atoms: C16_18  and  C17_19 
REMARK   28  A    between atoms: C17_19  and  C18_20 
ROOT
HETATM    1  O1  UNL     1     -41.259  15.217  47.728  1.00  0.00     0.000 OA
HETATM    2  O2  UNL     1     -35.416  13.546  50.131  1.00  0.00     0.000 OA
HETATM    3  C1  UNL     1     -40.028  15.027  48.500  1.00  0.00     0.000 A 
HETATM    4  C2  UNL     1     -39.741  15.312  49.219  1.00  0.00     0.000 A 
HETATM    5  C3  UNL     1     -38.997  15.077  49.487  1.00  0.00     0.000 A 
HETATM    6  C4  UNL     1     -38.541  14.557  49.038  1.00  0.00     0.000 A 
HETATM    7  C5  UNL     1     -40.771  15.352  48.379  1.00  0.00     0.000 A 
HETATM    8  C6  UNL     1     -39.572  14.507  48.049  1.00  0.00     0.000 A 
HETATM    9  C7  UNL     1     -40.308  15.811  49.536  1.00  0.00     0.000 A 
HETATM   10  C8  UNL     1     -38.828  14.273  48.319  1.00  0.00     0.000 A 
HETATM   11  C9  UNL     1     -40.944  15.836  49.019  1.00  0.00     0.000 A 
HETATM   12  C10 UNL     1     -38.710  15.380  50.238  1.00  0.00     0.000 A 
HETATM   13  C11 UNL     1     -40.316  14.743  47.781  1.00  0.00     0.000 C 
HETATM   14  C12 UNL     1     -37.765  14.305  49.307  1.00  0.00     0.000 A 
HETATM   15  C13 UNL     1     -37.935  15.139  50.524  1.00  0.00     0.000 A 
HETATM   16  C14 UNL     1     -37.460  14.598  50.055  1.00  0.00     0.000 A 
HETATM   17  C15 UNL     1     -37.286  13.741  48.805  1.00  0.00     0.000 A 
HETATM   18  C16 UNL     1     -36.654  14.347  50.352  1.00  0.00     0.000 A 
HETATM   19  C17 UNL     1     -36.477  13.478  49.086  1.00  0.00     0.000 A 
HETATM   20  C18 UNL     1     -36.159  13.783  49.865  1.00  0.00     0.000 A 
ENDROOT
TORSDOF 28
ENDMDL
