MODEL 1
REMARK VINA RESULT:     156.0      0.000      0.000
REMARK  23 active torsions:
REMARK  status: ('A' for Active; 'I' for Inactive)
REMARK    1  A    between atoms: O2_2  and  N1_3 
REMARK    2  A    between atoms: C1_4  and  C5_8 
REMARK    3  A    between atoms: C1_4  and  C8_11 
REMARK    4  A    between atoms: C2_5  and  C6_9 
REMARK    5  A    between atoms: C2_5  and  C11_14 
REMARK    6  A    between atoms: C3_6  and  C5_8 
REMARK    7  A    between atoms: C3_6  and  C7_10 
REMARK    8  A    between atoms: C3_6  and  C8_11 
REMARK    9  A    between atoms: C4_7  and  C5_8 
REMARK   10  A    between atoms: C4_7  and  C14_17 
REMARK   11  A    between atoms: C4_7  and  C15_18 
REMARK   12  A    between atoms: C5_8  and  C6_9 
REMARK   13  A    between atoms: C5_8  and  C11_14 
REMARK   14  A    between atoms: C6_9  and  C8_11 
REMARK   15  A    between atoms: C6_9  and  C10_13 
REMARK   16  A    between atoms: C7_10  and  C10_13 
REMARK   17  A    between atoms: C9_12  and  C11_14 
REMARK   18  A    between atoms: C9_12  and  C13_16 
REMARK   19  A    between atoms: C11_14  and  C12_15 
REMARK   20  A    between atoms: C11_14  and  C14_17 
REMARK   21  A    between atoms: C12_15  and  C13_16 
REMARK   22  A    between atoms: C12_15  and  C15_18 
REMARK   23  A    between atoms: C13_16  and  C14_17 
ROOT
HETATM    1  O1  UNL     1     -41.279  10.388  47.656  1.00  0.00    -0.365 OA
HETATM    2  O2  UNL     1     -41.279  11.810  47.529  1.00  0.00     0.000 OA
HETATM    3  N1  UNL     1     -41.300  12.633  48.697  1.00  0.00     0.000 N 
HETATM    4  C1  UNL     1     -41.300  14.055  48.570  1.00  0.00     0.000 A 
HETATM    5  C2  UNL     1     -41.307  13.381  49.044  1.00  0.00     0.005 A 
HETATM    6  C3  UNL     1     -41.307  14.804  48.917  1.00  0.00     0.000 A 
HETATM    7  C4  UNL     1     -41.307  11.958  49.171  1.00  0.00     0.040 A 
HETATM    8  C5  UNL     1     -41.321  13.454  49.865  1.00  0.00     0.006 A 
HETATM    9  C6  UNL     1     -41.321  14.878  49.739  1.00  0.00     0.000 A 
HETATM   10  C7  UNL     1     -41.286  13.983  47.748  1.00  0.00     0.000 A 
HETATM   11  C8  UNL     1     -41.328  14.203  50.213  1.00  0.00     0.000 A 
HETATM   12  C9  UNL     1     -41.299  11.209  48.824  1.00  0.00     0.068 A 
HETATM   13  C10 UNL     1     -41.300  15.479  48.443  1.00  0.00     0.000 A 
HETATM   14  C11 UNL     1     -41.320  12.031  49.993  1.00  0.00     0.026 A 
HETATM   15  C12 UNL     1     -41.306  10.535  49.299  1.00  0.00     0.046 A 
HETATM   16  C13 UNL     1     -41.327  11.356  50.467  1.00  0.00     0.030 A 
HETATM   17  C14 UNL     1     -41.320  10.608  50.120  1.00  0.00     0.030 A 
HETATM   18  C15 UNL     1     -41.286  11.136  48.003  1.00  0.00     0.113 A 
ENDROOT
TORSDOF 23
ENDMDL
