MODEL 1
REMARK VINA RESULT:     289.4      0.000      0.000
REMARK  29 active torsions:
REMARK  status: ('A' for Active; 'I' for Inactive)
REMARK    1  A    between atoms: O1_1  and  C5_13 
REMARK    2  A    between atoms: O1_1  and  C13_21 
REMARK    3  A    between atoms: O1_1  and  C14_22 
REMARK    4  A    between atoms: O2_2  and  C3_11 
REMARK    5  A    between atoms: O3_3  and  C2_10 
REMARK    6  A    between atoms: O4_4  and  C6_14 
REMARK    7  A    between atoms: O4_4  and  C10_18 
REMARK    8  A    between atoms: N1_6  and  C3_11 
REMARK    9  A    between atoms: N1_6  and  C7_15 
REMARK   10  A    between atoms: N1_6  and  C11_19 
REMARK   11  A    between atoms: N2_7  and  C2_10 
REMARK   12  A    between atoms: N2_7  and  C8_16 
REMARK   13  A    between atoms: N3_8  and  C10_18 
REMARK   14  A    between atoms: C1_9  and  C11_19 
REMARK   15  A    between atoms: C2_10  and  C11_19 
REMARK   16  A    between atoms: C3_11  and  C13_21 
REMARK   17  A    between atoms: C3_11  and  C14_22 
REMARK   18  A    between atoms: C4_12  and  C10_18 
REMARK   19  A    between atoms: C5_13  and  C10_18 
REMARK   20  A    between atoms: C6_14  and  C10_18 
REMARK   21  A    between atoms: C6_14  and  C11_19 
REMARK   22  A    between atoms: C6_14  and  C14_22 
REMARK   23  A    between atoms: C7_15  and  C8_16 
REMARK   24  A    between atoms: C7_15  and  C9_17 
REMARK   25  A    between atoms: C8_16  and  C9_17 
REMARK   26  A    between atoms: C8_16  and  C11_19 
REMARK   27  A    between atoms: C10_18  and  C14_22 
REMARK   28  A    between atoms: C10_18  and  C13_21 
REMARK   29  A    between atoms: C12_20  and  C13_21 
ROOT
HETATM    1  O1  UNL     1     -36.234  13.131  50.410  1.00  0.00     0.000 OA
HETATM    2  O2  UNL     1     -38.309  14.479  50.344  1.00  0.00     0.000 OA
HETATM    3  O3  UNL     1     -39.001  14.929  50.322  1.00  0.00     0.000 OA
HETATM    4  O4  UNL     1     -37.577  14.853  50.405  1.00  0.00     0.000 OA
HETATM    5  O5  UNL     1     -36.110  15.600  50.528  1.00  0.00    -0.125 OA
HETATM    6  N1  UNL     1     -39.085  13.283  50.243  1.00  0.00     0.000 N 
HETATM    7  N2  UNL     1     -40.425  15.005  50.239  1.00  0.00     0.000 N 
HETATM    8  N3  UNL     1     -36.151  14.777  50.488  1.00  0.00     0.291 N 
HETATM    9  C1  UNL     1     -40.508  13.359  50.160  1.00  0.00     0.004 A 
HETATM   10  C2  UNL     1     -39.776  13.732  50.221  1.00  0.00     0.009 A 
HETATM   11  C3  UNL     1     -37.660  13.207  50.326  1.00  0.00     0.085 A 
HETATM   12  C4  UNL     1     -37.702  12.384  50.287  1.00  0.00     0.041 A 
HETATM   13  C5  UNL     1     -37.010  11.934  50.309  1.00  0.00     0.038 A 
HETATM   14  C6  UNL     1     -38.351  13.656  50.305  1.00  0.00     0.084 A 
HETATM   15  C7  UNL     1     -40.133  12.624  50.150  1.00  0.00     0.001 A 
HETATM   16  C8  UNL     1     -40.884  14.093  50.170  1.00  0.00     0.004 A 
HETATM   17  C9  UNL     1     -41.242  12.985  50.099  1.00  0.00     0.001 A 
HETATM   18  C10 UNL     1     -36.926  13.580  50.388  1.00  0.00     0.206 A 
HETATM   19  C11 UNL     1     -39.734  14.555  50.261  1.00  0.00     0.021 A 
HETATM   20  C12 UNL     1     -37.051  11.111  50.269  1.00  0.00     0.006 A 
HETATM   21  C13 UNL     1     -36.276  12.308  50.370  1.00  0.00     0.038 A 
HETATM   22  C14 UNL     1     -36.885  14.403  50.427  1.00  0.00     0.328 A 
HETATM   23  C15 UNL     1     -40.383  15.828  50.278  1.00  0.00    -0.032 A 
ENDROOT
TORSDOF 29
ENDMDL
