MODEL 1
REMARK VINA RESULT:     127.4      0.000      0.000
REMARK  13 active torsions:
REMARK  status: ('A' for Active; 'I' for Inactive)
REMARK    1  A    between atoms: O1_1  and  C8_16 
REMARK    2  A    between atoms: O2_2  and  C3_11 
REMARK    3  A    between atoms: N1_4  and  N3_6 
REMARK    4  A    between atoms: N2_5  and  N4_7 
REMARK    5  A    between atoms: N3_6  and  C5_13 
REMARK    6  A    between atoms: N4_7  and  C6_14 
REMARK    7  A    between atoms: N4_7  and  N5_8 
REMARK    8  A    between atoms: N4_7  and  C3_11 
REMARK    9  A    between atoms: C1_9  and  C5_13 
REMARK   10  A    between atoms: C2_10  and  C4_12 
REMARK   11  A    between atoms: C3_11  and  C5_13 
REMARK   12  A    between atoms: C3_11  and  C6_14 
REMARK   13  A    between atoms: C5_13  and  C6_14 
ROOT
HETATM    1  O1  UNL     1     -37.636  15.552  48.568  1.00  0.00     0.000 OA
HETATM    2  O3  UNL     1     -35.717  15.587  47.528  1.00  0.00    -0.352 OA
HETATM    3  N1  UNL     1     -38.971  15.368  49.044  1.00  0.00     0.000 N 
HETATM    4  N2  UNL     1     -40.134  14.586  48.499  1.00  0.00     0.000 N 
HETATM    5  N3  UNL     1     -39.601  15.830  50.118  1.00  0.00     0.000 N 
HETATM    6  N5  UNL     1     -41.319  13.893  48.103  1.00  0.00    -0.135 NA
HETATM    7  C1  UNL     1     -39.737  15.077  49.032  1.00  0.00     0.019 A 
HETATM    8  C2  UNL     1     -38.387  15.219  48.481  1.00  0.00     0.031 A 
HETATM    9  C3  UNL     1     -40.129  15.365  49.699  1.00  0.00     0.018 A 
HETATM   10  C4  UNL     1     -38.886  15.833  49.715  1.00  0.00     0.005 A 
HETATM   11  C6  UNL     1     -40.922  14.384  48.635  1.00  0.00     0.077 A 
HETATM   12  C7  UNL     1     -37.052  15.403  48.005  1.00  0.00     0.145 A 
HETATM   13  C8  UNL     1     -36.302  15.735  48.091  1.00  0.00     0.172 A 
ENDROOT
BRANCH   7  14
HETATM   14  C5  UNL     1     -40.917  15.161  49.833  1.00  0.00     0.019 A 
HETATM   15  O2  UNL     1     -41.326  14.971  50.524  1.00  0.00     0.000 OA
HETATM   16  N4  UNL     1     -41.278  15.625  49.255  1.00  0.00     0.000 N 
ENDBRANCH   7  14
TORSDOF 13
ENDMDL
