MODEL 1
REMARK VINA RESULT:     133.1      0.000      0.000
REMARK  18 active torsions:
REMARK  status: ('A' for Active; 'I' for Inactive)
REMARK    1  A    between atoms: O1_3  and  C1_8 
REMARK    2  A    between atoms: O1_3  and  C3_10 
REMARK    3  A    between atoms: O2_4  and  N3_7 
REMARK    4  A    between atoms: N1_5  and  C5_12 
REMARK    5  A    between atoms: N1_5  and  C6_13 
REMARK    6  A    between atoms: N1_5  and  C7_14 
REMARK    7  A    between atoms: N2_6  and  N3_7 
REMARK    8  A    between atoms: N2_6  and  C3_10 
REMARK    9  A    between atoms: C1_8  and  C5_12 
REMARK   10  A    between atoms: C1_8  and  C6_13 
REMARK   11  A    between atoms: C2_9  and  C3_10 
REMARK   12  A    between atoms: C2_9  and  C4_11 
REMARK   13  A    between atoms: C2_9  and  C7_14 
REMARK   14  A    between atoms: C3_10  and  C6_13 
REMARK   15  A    between atoms: C3_10  and  C8_15 
REMARK   16  A    between atoms: C4_11  and  C5_12 
REMARK   17  A    between atoms: C6_13  and  C7_14 
REMARK   18  A    between atoms: C6_13  and  C8_15 
ROOT
HETATM    1 CL1  UNL     1     -41.234  13.561  50.268  1.00  0.00    -0.193 Cl
HETATM    2 CL2  UNL     1     -41.291  15.822  48.521  1.00  0.00    -0.193 Cl
HETATM    3  O1  UNL     1     -38.785  13.814  50.516  1.00  0.00     0.000 OA
HETATM    4  O2  UNL     1     -36.363  15.198  49.890  1.00  0.00     0.000 OA
HETATM    5  N1  UNL     1     -39.631  14.861  49.560  1.00  0.00     0.000 N 
HETATM    6  N2  UNL     1     -37.574  14.505  50.203  1.00  0.00     0.000 N 
HETATM    7  N3  UNL     1     -37.603  15.637  49.329  1.00  0.00     0.000 N 
HETATM    8  C1  UNL     1     -40.024  14.253  49.955  1.00  0.00     0.070 A 
HETATM    9  C2  UNL     1     -40.053  15.384  49.082  1.00  0.00     0.070 A 
HETATM   10  C3  UNL     1     -38.813  14.945  49.642  1.00  0.00     0.026 A 
HETATM   11  C4  UNL     1     -40.840  14.169  49.872  1.00  0.00     0.090 A 
HETATM   12  C5  UNL     1     -40.869  15.299  48.999  1.00  0.00     0.090 A 
HETATM   13  C6  UNL     1     -38.391  14.422  50.120  1.00  0.00     0.016 A 
HETATM   14  C7  UNL     1     -38.420  15.552  49.246  1.00  0.00     0.016 A 
HETATM   15  C8  UNL     1     -37.180  15.113  49.807  1.00  0.00     0.005 A 
ENDROOT
TORSDOF 18
ENDMDL
MODEL 2
REMARK VINA RESULT:     133.6      3.003      3.694
REMARK  18 active torsions:
REMARK  status: ('A' for Active; 'I' for Inactive)
REMARK    1  A    between atoms: O1_3  and  C1_8 
REMARK    2  A    between atoms: O1_3  and  C3_10 
REMARK    3  A    between atoms: O2_4  and  N3_7 
REMARK    4  A    between atoms: N1_5  and  C5_12 
REMARK    5  A    between atoms: N1_5  and  C6_13 
REMARK    6  A    between atoms: N1_5  and  C7_14 
REMARK    7  A    between atoms: N2_6  and  N3_7 
REMARK    8  A    between atoms: N2_6  and  C3_10 
REMARK    9  A    between atoms: C1_8  and  C5_12 
REMARK   10  A    between atoms: C1_8  and  C6_13 
REMARK   11  A    between atoms: C2_9  and  C3_10 
REMARK   12  A    between atoms: C2_9  and  C4_11 
REMARK   13  A    between atoms: C2_9  and  C7_14 
REMARK   14  A    between atoms: C3_10  and  C6_13 
REMARK   15  A    between atoms: C3_10  and  C8_15 
REMARK   16  A    between atoms: C4_11  and  C5_12 
REMARK   17  A    between atoms: C6_13  and  C7_14 
REMARK   18  A    between atoms: C6_13  and  C8_15 
ROOT
HETATM    1 CL1  UNL     1     -40.511  11.133  47.528  1.00  0.00    -0.193 Cl
HETATM    2 CL2  UNL     1     -41.253  10.711  50.255  1.00  0.00    -0.193 Cl
HETATM    3  O1  UNL     1     -40.660  13.581  47.866  1.00  0.00     0.000 OA
HETATM    4  O2  UNL     1     -41.179  15.818  49.569  1.00  0.00     0.000 OA
HETATM    5  N1  UNL     1     -40.981  12.553  49.118  1.00  0.00     0.000 N 
HETATM    6  N2  UNL     1     -40.919  14.699  48.717  1.00  0.00     0.000 N 
HETATM    7  N3  UNL     1     -41.291  14.488  50.082  1.00  0.00     0.000 N 
HETATM    8  C1  UNL     1     -40.771  12.251  48.379  1.00  0.00     0.070 A 
HETATM    9  C2  UNL     1     -41.142  12.040  49.743  1.00  0.00     0.070 A 
HETATM   10  C3  UNL     1     -41.031  13.370  49.230  1.00  0.00     0.026 A 
HETATM   11  C4  UNL     1     -40.722  11.436  48.267  1.00  0.00     0.090 A 
HETATM   12  C5  UNL     1     -41.093  11.225  49.630  1.00  0.00     0.090 A 
HETATM   13  C6  UNL     1     -40.870  13.883  48.605  1.00  0.00     0.016 A 
HETATM   14  C7  UNL     1     -41.241  13.671  49.969  1.00  0.00     0.016 A 
HETATM   15  C8  UNL     1     -41.130  15.001  49.456  1.00  0.00     0.005 A 
ENDROOT
TORSDOF 18
ENDMDL
