MODEL 1
REMARK VINA RESULT:     140.7      0.000      0.000
REMARK  13 active torsions:
REMARK  status: ('A' for Active; 'I' for Inactive)
REMARK    1  A    between atoms: CL3_4  and  C5_10 
REMARK    2  A    between atoms: C1_6  and  C4_9 
REMARK    3  A    between atoms: C1_6  and  C5_10 
REMARK    4  A    between atoms: C1_6  and  C6_11 
REMARK    5  A    between atoms: C2_7  and  C3_8 
REMARK    6  A    between atoms: C2_7  and  C4_9 
REMARK    7  A    between atoms: C2_7  and  C6_11 
REMARK    8  A    between atoms: C3_8  and  C5_10 
REMARK    9  A    between atoms: C3_8  and  C6_11 
REMARK   10  A    between atoms: C3_8  and  C7_12 
REMARK   11  A    between atoms: C4_9  and  C5_10 
REMARK   12  A    between atoms: C5_10  and  C6_11 
REMARK   13  A    between atoms: C7_12  and  C9_14 
ROOT
HETATM    1  I1  UNL     1     -41.316  15.777  50.320  1.00  0.00    -0.106 I 
HETATM    2 CL1  UNL     1     -37.033  15.783  50.509  1.00  0.00    -0.227 Cl
HETATM    3 CL2  UNL     1     -37.025  12.484  50.438  1.00  0.00    -0.220 Cl
HETATM    4 CL3  UNL     1     -35.600  13.310  50.519  1.00  0.00    -0.214 Cl
HETATM    5  O1  UNL     1     -38.459  14.956  50.429  1.00  0.00     0.000 OA
HETATM    6  C1  UNL     1     -37.744  14.545  50.451  1.00  0.00     0.101 A 
HETATM    7  C2  UNL     1     -37.031  14.959  50.492  1.00  0.00     0.107 A 
HETATM    8  C3  UNL     1     -37.742  13.720  50.433  1.00  0.00     0.101 A 
HETATM    9  C4  UNL     1     -37.027  13.309  50.456  1.00  0.00     0.109 A 
HETATM   10  C5  UNL     1     -36.317  14.547  50.514  1.00  0.00     0.108 A 
HETATM   11  C6  UNL     1     -36.314  13.722  50.496  1.00  0.00     0.109 A 
HETATM   12  C7  UNL     1     -39.172  14.543  50.388  1.00  0.00     0.064 A 
HETATM   13  C8  UNL     1     -39.886  14.954  50.366  1.00  0.00     0.077 A 
HETATM   14  C9  UNL     1     -40.601  15.366  50.343  1.00  0.00    -0.010 C 
ENDROOT
TORSDOF 13
ENDMDL
