MODEL 1
REMARK VINA RESULT:      50.6      0.000      0.000
REMARK  13 active torsions:
REMARK  status: ('A' for Active; 'I' for Inactive)
REMARK    1  A    between atoms: N1_1  and  C4_6 
REMARK    2  A    between atoms: N2_2  and  C2_4 
REMARK    3  A    between atoms: N2_2  and  C3_5 
REMARK    4  A    between atoms: N2_2  and  C6_8 
REMARK    5  A    between atoms: C1_3  and  C6_8 
REMARK    6  A    between atoms: C2_4  and  C4_6 
REMARK    7  A    between atoms: C5_7  and  C10_12 
REMARK    8  A    between atoms: C6_8  and  C7_9 
REMARK    9  A    between atoms: C6_8  and  C9_11 
REMARK   10  A    between atoms: C7_9  and  C8_10 
REMARK   11  A    between atoms: C7_9  and  C10_12 
REMARK   12  A    between atoms: C8_10  and  C9_11 
REMARK   13  A    between atoms: C9_11  and  C10_12 
ROOT
HETATM    1  N1  UNL     1     -37.707  15.752  50.447  1.00  0.00     0.000 N 
HETATM    2  N2  UNL     1     -38.382  15.470  49.331  1.00  0.00     0.000 N 
HETATM    3  C1  UNL     1     -38.463  15.681  50.124  1.00  0.00     0.000 A 
HETATM    4  C2  UNL     1     -37.160  15.584  49.853  1.00  0.00     0.000 A 
HETATM    5  C3  UNL     1     -39.174  15.801  50.524  1.00  0.00     0.000 A 
HETATM    6  C4  UNL     1     -37.577  15.410  49.164  1.00  0.00     0.000 A 
HETATM    7  C5  UNL     1     -39.892  15.711  50.127  1.00  0.00     0.000 A 
HETATM    8  C6  UNL     1     -39.896  15.500  49.329  1.00  0.00     0.000 A 
HETATM    9  C7  UNL     1     -40.602  15.831  50.526  1.00  0.00     0.000 A 
HETATM   10  C8  UNL     1     -40.614  15.409  48.930  1.00  0.00     0.000 A 
HETATM   11  C9  UNL     1     -41.320  15.740  50.128  1.00  0.00     0.000 A 
HETATM   12  C10 UNL     1     -41.326  15.529  49.331  1.00  0.00     0.000 A 
ENDROOT
TORSDOF 13
ENDMDL
MODEL 2
REMARK VINA RESULT:      53.0      2.614      3.432
REMARK  13 active torsions:
REMARK  status: ('A' for Active; 'I' for Inactive)
REMARK    1  A    between atoms: N1_1  and  C4_6 
REMARK    2  A    between atoms: N2_2  and  C2_4 
REMARK    3  A    between atoms: N2_2  and  C3_5 
REMARK    4  A    between atoms: N2_2  and  C6_8 
REMARK    5  A    between atoms: C1_3  and  C6_8 
REMARK    6  A    between atoms: C2_4  and  C4_6 
REMARK    7  A    between atoms: C5_7  and  C10_12 
REMARK    8  A    between atoms: C6_8  and  C7_9 
REMARK    9  A    between atoms: C6_8  and  C9_11 
REMARK   10  A    between atoms: C7_9  and  C8_10 
REMARK   11  A    between atoms: C7_9  and  C10_12 
REMARK   12  A    between atoms: C8_10  and  C9_11 
REMARK   13  A    between atoms: C9_11  and  C10_12 
ROOT
HETATM    1  N1  UNL     1     -41.070  12.975  47.528  1.00  0.00     0.000 N 
HETATM    2  N2  UNL     1     -41.260  12.922  48.848  1.00  0.00     0.000 N 
HETATM    3  C1  UNL     1     -41.125  13.431  48.214  1.00  0.00     0.000 A 
HETATM    4  C2  UNL     1     -41.171  12.184  47.740  1.00  0.00     0.000 A 
HETATM    5  C3  UNL     1     -41.056  14.252  48.256  1.00  0.00     0.000 A 
HETATM    6  C4  UNL     1     -41.289  12.152  48.556  1.00  0.00     0.000 A 
HETATM    7  C5  UNL     1     -41.124  14.634  48.984  1.00  0.00     0.000 A 
HETATM    8  C6  UNL     1     -41.260  14.195  49.669  1.00  0.00     0.000 A 
HETATM    9  C7  UNL     1     -41.055  15.455  49.027  1.00  0.00     0.000 A 
HETATM   10  C8  UNL     1     -41.328  14.578  50.398  1.00  0.00     0.000 A 
HETATM   11  C9  UNL     1     -41.123  15.838  49.755  1.00  0.00     0.000 A 
HETATM   12  C10 UNL     1     -41.259  15.399  50.440  1.00  0.00     0.000 A 
ENDROOT
TORSDOF 13
ENDMDL
