MODEL 1
REMARK VINA RESULT:     320.8      0.000      0.000
REMARK  28 active torsions:
REMARK  status: ('A' for Active; 'I' for Inactive)
REMARK    1  A    between atoms: CL1_1  and  C11_18 
REMARK    2  A    between atoms: F1_2  and  C3_10 
REMARK    3  A    between atoms: F2_3  and  C3_10 
REMARK    4  A    between atoms: N1_6  and  C5_12 
REMARK    5  A    between atoms: N1_6  and  C6_13 
REMARK    6  A    between atoms: N2_7  and  C5_12 
REMARK    7  A    between atoms: C1_8  and  C4_11 
REMARK    8  A    between atoms: C1_8  and  C5_12 
REMARK    9  A    between atoms: C2_9  and  C7_14 
REMARK   10  A    between atoms: C2_9  and  C9_16 
REMARK   11  A    between atoms: C2_9  and  C12_19 
REMARK   12  A    between atoms: C2_9  and  C14_21 
REMARK   13  A    between atoms: C3_10  and  C10_17 
REMARK   14  A    between atoms: C3_10  and  C5_12 
REMARK   15  A    between atoms: C3_10  and  C7_14 
REMARK   16  A    between atoms: C4_11  and  C8_15 
REMARK   17  A    between atoms: C7_14  and  C12_19 
REMARK   18  A    between atoms: C8_15  and  C9_16 
REMARK   19  A    between atoms: C8_15  and  C11_18 
REMARK   20  A    between atoms: C8_15  and  C14_21 
REMARK   21  A    between atoms: C9_16  and  C17_24 
REMARK   22  A    between atoms: C11_18  and  C12_19 
REMARK   23  A    between atoms: C13_20  and  C14_21 
REMARK   24  A    between atoms: C13_20  and  C16_23 
REMARK   25  A    between atoms: C14_21  and  C15_22 
REMARK   26  A    between atoms: C14_21  and  C17_24 
REMARK   27  A    between atoms: C15_22  and  C16_23 
REMARK   28  A    between atoms: C16_23  and  C17_24 
ROOT
HETATM    1 CL1  UNL     1     -40.074  15.826  49.058  1.00  0.00    -0.250 Cl
HETATM    2  O1  UNL     1     -38.920  11.296  50.159  1.00  0.00    -0.351 OA
HETATM    3  N1  UNL     1     -39.739  12.548  49.662  1.00  0.00     0.000 N 
HETATM    4  N2  UNL     1     -38.047  13.033  50.243  1.00  0.00     0.000 N 
HETATM    5  C1  UNL     1     -39.732  13.365  49.546  1.00  0.00     0.090 A 
HETATM    6  C2  UNL     1     -39.125  13.901  49.702  1.00  0.00     0.035 A 
HETATM    7  C3  UNL     1     -40.436  12.162  49.450  1.00  0.00     0.231 A 
HETATM    8  C4  UNL     1     -38.375  13.754  50.012  1.00  0.00     0.040 A 
HETATM    9  C5  UNL     1     -39.141  12.066  49.962  1.00  0.00     0.173 A 
HETATM   10  C6  UNL     1     -38.388  12.282  50.221  1.00  0.00     0.146 A 
HETATM   11  C7  UNL     1     -40.482  13.629  49.219  1.00  0.00     0.079 A 
HETATM   12  C8  UNL     1     -39.226  14.740  49.542  1.00  0.00     0.041 A 
HETATM   13  C9  UNL     1     -37.890  14.415  50.104  1.00  0.00     0.013 A 
HETATM   14  C11 UNL     1     -40.600  14.464  49.052  1.00  0.00     0.063 A 
HETATM   15  C12 UNL     1     -39.968  15.023  49.215  1.00  0.00     0.058 A 
HETATM   16  C13 UNL     1     -37.128  14.327  50.410  1.00  0.00     0.005 A 
HETATM   17  C14 UNL     1     -38.165  15.162  49.889  1.00  0.00     0.013 A 
HETATM   18  C15 UNL     1     -36.642  14.987  50.501  1.00  0.00     0.002 A 
HETATM   19  C16 UNL     1     -37.679  15.823  49.980  1.00  0.00     0.002 A 
HETATM   20  C17 UNL     1     -36.918  15.735  50.286  1.00  0.00     0.002 A 
ENDROOT
BRANCH   7  21
HETATM   21  C10 UNL     1     -40.876  11.467  49.381  1.00  0.00     0.393 A 
HETATM   22  F1  UNL     1     -41.083  11.520  50.178  1.00  0.00    -0.284 F 
HETATM   23  F3  UNL     1     -41.316  10.773  49.312  1.00  0.00    -0.217 F 
HETATM   24  F2  UNL     1     -40.669  11.415  48.584  1.00  0.00    -0.284 F 
ENDBRANCH   7  21
TORSDOF 28
ENDMDL
