MODEL 1
REMARK VINA RESULT:     266.4      0.000      0.000
REMARK  18 active torsions:
REMARK  status: ('A' for Active; 'I' for Inactive)
REMARK    1  A    between atoms: O1_1  and  C4_11 
REMARK    2  A    between atoms: O2_2  and  N2_5 
REMARK    3  A    between atoms: O2_2  and  C2_9 
REMARK    4  A    between atoms: N1_4  and  N2_5 
REMARK    5  A    between atoms: N1_4  and  C4_11 
REMARK    6  A    between atoms: N3_6  and  N4_7 
REMARK    7  A    between atoms: N3_6  and  C6_13 
REMARK    8  A    between atoms: N4_7  and  C9_16 
REMARK    9  A    between atoms: C1_8  and  C7_14 
REMARK   10  A    between atoms: C2_9  and  C7_14 
REMARK   11  A    between atoms: C3_10  and  C12_19 
REMARK   12  A    between atoms: C4_11  and  C7_14 
REMARK   13  A    between atoms: C5_12  and  C6_13 
REMARK   14  A    between atoms: C5_12  and  C7_14 
REMARK   15  A    between atoms: C6_13  and  C9_16 
REMARK   16  A    between atoms: C7_14  and  C10_17 
REMARK   17  A    between atoms: C8_15  and  C13_20 
REMARK   18  A    between atoms: C9_16  and  C11_18 
ROOT
HETATM    1  O1  UNL     1     -37.934  11.800  50.325  1.00  0.00     0.000 OA
HETATM    2  O2  UNL     1     -37.555  14.633  50.272  1.00  0.00     0.000 OA
HETATM    3  O3  UNL     1     -41.326  14.420  50.430  1.00  0.00     0.000 OA
HETATM    4  N1  UNL     1     -37.744  13.217  50.298  1.00  0.00     0.000 N 
HETATM    5  N2  UNL     1     -36.424  13.759  50.237  1.00  0.00     0.000 N 
HETATM    6  N3  UNL     1     -36.150  11.667  50.253  1.00  0.00     0.000 N 
HETATM    7  N4  UNL     1     -35.339  12.718  50.206  1.00  0.00     0.130 N 
HETATM    8  C1  UNL     1     -38.562  13.327  50.331  1.00  0.00     0.007 A 
HETATM    9  C2  UNL     1     -38.875  14.091  50.333  1.00  0.00     0.004 A 
HETATM   10  C3  UNL     1     -39.693  14.201  50.366  1.00  0.00     0.000 A 
HETATM   11  C4  UNL     1     -36.614  12.344  50.263  1.00  0.00     0.201 A 
HETATM   12  C5  UNL     1     -37.431  12.453  50.296  1.00  0.00     0.059 A 
HETATM   13  C6  UNL     1     -36.111  12.996  50.234  1.00  0.00     0.199 A 
HETATM   14  C7  UNL     1     -37.241  13.869  50.269  1.00  0.00     0.054 A 
HETATM   15  C8  UNL     1     -40.005  14.964  50.369  1.00  0.00     0.000 A 
HETATM   16  C9  UNL     1     -35.364  11.899  50.218  1.00  0.00     0.245 A 
HETATM   17  C10 UNL     1     -35.920  14.412  50.207  1.00  0.00     0.035 A 
HETATM   18  C11 UNL     1     -36.426  10.890  50.275  1.00  0.00     0.067 A 
HETATM   19  C12 UNL     1     -40.822  15.073  50.401  1.00  0.00     0.000 A 
HETATM   20  C13 UNL     1     -41.136  15.837  50.404  1.00  0.00     0.000 A 
ENDROOT
TORSDOF 18
ENDMDL
