MODEL 1
REMARK VINA RESULT:     369.8      0.000      0.000
REMARK  32 active torsions:
REMARK  status: ('A' for Active; 'I' for Inactive)
REMARK    1  A    between atoms: CL1_1  and  C16_24 
REMARK    2  A    between atoms: S1_2  and  C12_20 
REMARK    3  A    between atoms: O1_3  and  C1_9 
REMARK    4  A    between atoms: O1_3  and  C5_13 
REMARK    5  A    between atoms: O2_4  and  C15_23 
REMARK    6  A    between atoms: O3_5  and  C12_20 
REMARK    7  A    between atoms: O3_5  and  C13_21 
REMARK    8  A    between atoms: N1_6  and  C3_11 
REMARK    9  A    between atoms: N2_7  and  C11_19 
REMARK   10  A    between atoms: C1_9  and  C4_12 
REMARK   11  A    between atoms: C2_10  and  C4_12 
REMARK   12  A    between atoms: C2_10  and  C5_13 
REMARK   13  A    between atoms: C3_11  and  C4_12 
REMARK   14  A    between atoms: C3_11  and  C7_15 
REMARK   15  A    between atoms: C3_11  and  C9_17 
REMARK   16  A    between atoms: C4_12  and  C6_14 
REMARK   17  A    between atoms: C4_12  and  C8_16 
REMARK   18  A    between atoms: C5_13  and  C10_18 
REMARK   19  A    between atoms: C6_14  and  C7_15 
REMARK   20  A    between atoms: C6_14  and  C9_17 
REMARK   21  A    between atoms: C7_15  and  C8_16 
REMARK   22  A    between atoms: C8_16  and  C9_17 
REMARK   23  A    between atoms: C11_19  and  C13_21 
REMARK   24  A    between atoms: C11_19  and  C15_23 
REMARK   25  A    between atoms: C12_20  and  C13_21 
REMARK   26  A    between atoms: C12_20  and  C14_22 
REMARK   27  A    between atoms: C12_20  and  C15_23 
REMARK   28  A    between atoms: C12_20  and  C16_24 
REMARK   29  A    between atoms: C13_21  and  C14_22 
REMARK   30  A    between atoms: C13_21  and  C16_24 
REMARK   31  A    between atoms: C14_22  and  C15_23 
REMARK   32  A    between atoms: C15_23  and  C16_24 
ROOT
HETATM    1 CL1  UNL     1     -37.995  15.837  50.513  1.00  0.00    -0.236 Cl
HETATM    2  S1  UNL     1     -36.669  15.344  49.665  1.00  0.00    -0.107 SA
HETATM    3  O2  UNL     1     -37.009  15.822  50.244  1.00  0.00     0.000 OA
HETATM    4  O3  UNL     1     -36.327  14.865  49.086  1.00  0.00     0.000 OA
HETATM    5  N3  UNL     1     -35.931  15.680  49.821  1.00  0.00    -0.078 NA
HETATM    6  C13 UNL     1     -37.405  15.008  49.510  1.00  0.00     0.076 A 
HETATM    7  C15 UNL     1     -38.069  15.254  49.934  1.00  0.00     0.076 A 
ENDROOT
BRANCH   1   8
HETATM    8  C16 UNL     1     -38.806  14.918  49.779  1.00  0.00     0.069 A 
HETATM    9  C14 UNL     1     -39.022  14.143  49.596  1.00  0.00     0.055 A 
HETATM   10  C11 UNL     1     -38.642  13.510  49.967  1.00  0.00     0.055 A 
HETATM   11  C10 UNL     1     -38.857  12.735  49.785  1.00  0.00     0.021 A 
HETATM   12  C12 UNL     1     -38.046  13.655  50.520  1.00  0.00     0.067 A 
HETATM   13  O1  UNL     1     -38.477  12.104  50.156  1.00  0.00     0.000 OA
HETATM   14  N2  UNL     1     -39.452  12.592  49.233  1.00  0.00     0.000 N 
HETATM   15  N1  UNL     1     -39.667  11.816  49.051  1.00  0.00     0.000 N 
HETATM   16  C1  UNL     1     -39.340  11.137  49.373  1.00  0.00     0.000 A 
HETATM   17  C4  UNL     1     -40.246  11.591  48.515  1.00  0.00     0.000 A 
HETATM   18  C2  UNL     1     -39.715  10.489  49.039  1.00  0.00     0.000 A 
HETATM   19  C5  UNL     1     -38.738  11.110  49.936  1.00  0.00     0.001 A 
HETATM   20  C7  UNL     1     -40.753  12.026  48.032  1.00  0.00     0.000 A 
HETATM   21  C3  UNL     1     -40.276  10.766  48.508  1.00  0.00     0.000 A 
HETATM   22  C6  UNL     1     -40.812  10.377  48.017  1.00  0.00     0.000 A 
HETATM   23  C8  UNL     1     -41.319  10.813  47.532  1.00  0.00     0.000 A 
HETATM   24  C9  UNL     1     -41.289  11.637  47.540  1.00  0.00     0.000 A 
ENDBRANCH   1   8
TORSDOF 32
ENDMDL
MODEL 2
REMARK VINA RESULT:     371.7      2.999      3.893
REMARK  32 active torsions:
REMARK  status: ('A' for Active; 'I' for Inactive)
REMARK    1  A    between atoms: CL1_1  and  C16_24 
REMARK    2  A    between atoms: S1_2  and  C12_20 
REMARK    3  A    between atoms: O1_3  and  C1_9 
REMARK    4  A    between atoms: O1_3  and  C5_13 
REMARK    5  A    between atoms: O2_4  and  C15_23 
REMARK    6  A    between atoms: O3_5  and  C12_20 
REMARK    7  A    between atoms: O3_5  and  C13_21 
REMARK    8  A    between atoms: N1_6  and  C3_11 
REMARK    9  A    between atoms: N2_7  and  C11_19 
REMARK   10  A    between atoms: C1_9  and  C4_12 
REMARK   11  A    between atoms: C2_10  and  C4_12 
REMARK   12  A    between atoms: C2_10  and  C5_13 
REMARK   13  A    between atoms: C3_11  and  C4_12 
REMARK   14  A    between atoms: C3_11  and  C7_15 
REMARK   15  A    between atoms: C3_11  and  C9_17 
REMARK   16  A    between atoms: C4_12  and  C6_14 
REMARK   17  A    between atoms: C4_12  and  C8_16 
REMARK   18  A    between atoms: C5_13  and  C10_18 
REMARK   19  A    between atoms: C6_14  and  C7_15 
REMARK   20  A    between atoms: C6_14  and  C9_17 
REMARK   21  A    between atoms: C7_15  and  C8_16 
REMARK   22  A    between atoms: C8_16  and  C9_17 
REMARK   23  A    between atoms: C11_19  and  C13_21 
REMARK   24  A    between atoms: C11_19  and  C15_23 
REMARK   25  A    between atoms: C12_20  and  C13_21 
REMARK   26  A    between atoms: C12_20  and  C14_22 
REMARK   27  A    between atoms: C12_20  and  C15_23 
REMARK   28  A    between atoms: C12_20  and  C16_24 
REMARK   29  A    between atoms: C13_21  and  C14_22 
REMARK   30  A    between atoms: C13_21  and  C16_24 
REMARK   31  A    between atoms: C14_22  and  C15_23 
REMARK   32  A    between atoms: C15_23  and  C16_24 
ROOT
HETATM    1 CL1  UNL     1     -40.809  15.205  47.839  1.00  0.00    -0.236 Cl
HETATM    2  S1  UNL     1     -40.884  15.087  49.483  1.00  0.00    -0.107 SA
HETATM    3  O2  UNL     1     -41.096  15.470  48.785  1.00  0.00     0.000 OA
HETATM    4  O3  UNL     1     -40.672  14.704  50.183  1.00  0.00     0.000 OA
HETATM    5  N3  UNL     1     -41.328  15.632  49.917  1.00  0.00    -0.078 NA
HETATM    6  C13 UNL     1     -40.441  14.542  49.050  1.00  0.00     0.076 A 
HETATM    7  C15 UNL     1     -40.403  14.601  48.229  1.00  0.00     0.076 A 
ENDROOT
BRANCH   1   8
HETATM    8  C16 UNL     1     -39.961  14.057  47.796  1.00  0.00     0.069 A 
HETATM    9  C14 UNL     1     -39.205  13.727  47.764  1.00  0.00     0.055 A 
HETATM   10  C11 UNL     1     -38.541  14.217  47.743  1.00  0.00     0.055 A 
HETATM   11  C10 UNL     1     -37.785  13.888  47.711  1.00  0.00     0.021 A 
HETATM   12  C12 UNL     1     -38.634  15.038  47.755  1.00  0.00     0.067 A 
HETATM   13  O1  UNL     1     -37.122  14.379  47.691  1.00  0.00     0.000 OA
HETATM   14  N2  UNL     1     -37.693  13.069  47.699  1.00  0.00     0.000 N 
HETATM   15  N1  UNL     1     -36.937  12.740  47.667  1.00  0.00     0.000 N 
HETATM   16  C1  UNL     1     -36.231  13.156  47.645  1.00  0.00     0.000 A 
HETATM   17  C4  UNL     1     -36.762  11.939  47.653  1.00  0.00     0.000 A 
HETATM   18  C2  UNL     1     -35.616  12.614  47.616  1.00  0.00     0.000 A 
HETATM   19  C5  UNL     1     -36.153  13.977  47.650  1.00  0.00     0.001 A 
HETATM   20  C7  UNL     1     -37.239  11.267  47.664  1.00  0.00     0.000 A 
HETATM   21  C3  UNL     1     -35.941  11.861  47.621  1.00  0.00     0.000 A 
HETATM   22  C6  UNL     1     -35.598  11.111  47.600  1.00  0.00     0.000 A 
HETATM   23  C8  UNL     1     -36.077  10.438  47.611  1.00  0.00     0.000 A 
HETATM   24  C9  UNL     1     -36.897  10.516  47.643  1.00  0.00     0.000 A 
ENDBRANCH   1   8
TORSDOF 32
ENDMDL
