MODEL 1
REMARK VINA RESULT:     398.2      0.000      0.000
REMARK  32 active torsions:
REMARK  status: ('A' for Active; 'I' for Inactive)
REMARK    1  A    between atoms: O1_1  and  C8_12 
REMARK    2  A    between atoms: O2_2  and  N1_3 
REMARK    3  A    between atoms: O2_2  and  C5_9 
REMARK    4  A    between atoms: O2_2  and  C10_14 
REMARK    5  A    between atoms: N1_3  and  C1_5 
REMARK    6  A    between atoms: N2_4  and  C12_16 
REMARK    7  A    between atoms: C1_5  and  C5_9 
REMARK    8  A    between atoms: C2_6  and  C6_10 
REMARK    9  A    between atoms: C2_6  and  C8_12 
REMARK   10  A    between atoms: C3_7  and  C5_9 
REMARK   11  A    between atoms: C3_7  and  C10_14 
REMARK   12  A    between atoms: C4_8  and  C6_10 
REMARK   13  A    between atoms: C4_8  and  C15_19 
REMARK   14  A    between atoms: C5_9  and  C6_10 
REMARK   15  A    between atoms: C5_9  and  C7_11 
REMARK   16  A    between atoms: C5_9  and  C12_16 
REMARK   17  A    between atoms: C6_10  and  C9_13 
REMARK   18  A    between atoms: C7_11  and  C10_14 
REMARK   19  A    between atoms: C7_11  and  C16_20 
REMARK   20  A    between atoms: C7_11  and  C17_21 
REMARK   21  A    between atoms: C8_12  and  C9_13 
REMARK   22  A    between atoms: C8_12  and  C14_18 
REMARK   23  A    between atoms: C9_13  and  C13_17 
REMARK   24  A    between atoms: C9_13  and  C15_19 
REMARK   25  A    between atoms: C10_14  and  C12_16 
REMARK   26  A    between atoms: C10_14  and  C17_21 
REMARK   27  A    between atoms: C11_15  and  C12_16 
REMARK   28  A    between atoms: C11_15  and  C17_21 
REMARK   29  A    between atoms: C12_16  and  C17_21 
REMARK   30  A    between atoms: C12_16  and  C16_20 
REMARK   31  A    between atoms: C13_17  and  C14_18 
REMARK   32  A    between atoms: C14_18  and  C15_19 
ROOT
HETATM    1  O1  UNL     1     -38.183  12.304  48.369  1.00  0.00     0.000 OA
HETATM    2  O2  UNL     1     -37.120  14.307  49.361  1.00  0.00     0.000 OA
HETATM    3  N1  UNL     1     -38.259  13.671  48.776  1.00  0.00     0.000 N 
HETATM    4  N2  UNL     1     -40.334  15.802  48.753  1.00  0.00    -0.015 N 
HETATM    5  C1  UNL     1     -37.045  12.940  48.953  1.00  0.00     0.002 A 
HETATM    6  C2  UNL     1     -37.829  12.972  48.700  1.00  0.00     0.005 A 
HETATM    7  C3  UNL     1     -39.044  13.703  48.522  1.00  0.00     0.057 A 
HETATM    8  C4  UNL     1     -36.614  12.240  48.876  1.00  0.00     0.000 A 
HETATM    9  C5  UNL     1     -37.905  14.339  49.107  1.00  0.00     0.033 A 
HETATM   10  C6  UNL     1     -36.690  13.608  49.284  1.00  0.00     0.002 A 
HETATM   11  C7  UNL     1     -39.474  14.403  48.599  1.00  0.00     0.097 A 
HETATM   12  C8  UNL     1     -36.968  11.573  48.546  1.00  0.00     0.000 A 
HETATM   13  C9  UNL     1     -35.830  12.209  49.130  1.00  0.00     0.000 A 
HETATM   14  C10 UNL     1     -38.336  15.039  49.184  1.00  0.00     0.060 A 
HETATM   15  C11 UNL     1     -40.258  14.435  48.346  1.00  0.00     0.193 A 
HETATM   16  C12 UNL     1     -39.119  15.071  48.930  1.00  0.00     0.160 A 
HETATM   17  C13 UNL     1     -36.538  10.872  48.469  1.00  0.00     0.000 A 
HETATM   18  C14 UNL     1     -35.399  11.508  49.053  1.00  0.00     0.000 A 
HETATM   19  C15 UNL     1     -35.754  10.841  48.723  1.00  0.00     0.000 A 
HETATM   20  C16 UNL     1     -40.688  15.135  48.423  1.00  0.00     0.213 A 
HETATM   21  C17 UNL     1     -39.550  15.771  49.007  1.00  0.00     0.193 A 
ENDROOT
TORSDOF 32
ENDMDL
MODEL 2
REMARK VINA RESULT:     400.0      1.764      4.482
REMARK  32 active torsions:
REMARK  status: ('A' for Active; 'I' for Inactive)
REMARK    1  A    between atoms: O1_1  and  C8_12 
REMARK    2  A    between atoms: O2_2  and  N1_3 
REMARK    3  A    between atoms: O2_2  and  C5_9 
REMARK    4  A    between atoms: O2_2  and  C10_14 
REMARK    5  A    between atoms: N1_3  and  C1_5 
REMARK    6  A    between atoms: N2_4  and  C12_16 
REMARK    7  A    between atoms: C1_5  and  C5_9 
REMARK    8  A    between atoms: C2_6  and  C6_10 
REMARK    9  A    between atoms: C2_6  and  C8_12 
REMARK   10  A    between atoms: C3_7  and  C5_9 
REMARK   11  A    between atoms: C3_7  and  C10_14 
REMARK   12  A    between atoms: C4_8  and  C6_10 
REMARK   13  A    between atoms: C4_8  and  C15_19 
REMARK   14  A    between atoms: C5_9  and  C6_10 
REMARK   15  A    between atoms: C5_9  and  C7_11 
REMARK   16  A    between atoms: C5_9  and  C12_16 
REMARK   17  A    between atoms: C6_10  and  C9_13 
REMARK   18  A    between atoms: C7_11  and  C10_14 
REMARK   19  A    between atoms: C7_11  and  C16_20 
REMARK   20  A    between atoms: C7_11  and  C17_21 
REMARK   21  A    between atoms: C8_12  and  C9_13 
REMARK   22  A    between atoms: C8_12  and  C14_18 
REMARK   23  A    between atoms: C9_13  and  C13_17 
REMARK   24  A    between atoms: C9_13  and  C15_19 
REMARK   25  A    between atoms: C10_14  and  C12_16 
REMARK   26  A    between atoms: C10_14  and  C17_21 
REMARK   27  A    between atoms: C11_15  and  C12_16 
REMARK   28  A    between atoms: C11_15  and  C17_21 
REMARK   29  A    between atoms: C12_16  and  C17_21 
REMARK   30  A    between atoms: C12_16  and  C16_20 
REMARK   31  A    between atoms: C13_17  and  C14_18 
REMARK   32  A    between atoms: C14_18  and  C15_19 
ROOT
HETATM    1  O1  UNL     1     -38.790  12.778  48.131  1.00  0.00     0.000 OA
HETATM    2  O2  UNL     1     -39.090  11.938  50.439  1.00  0.00     0.000 OA
HETATM    3  N1  UNL     1     -38.331  11.989  49.230  1.00  0.00     0.000 N 
HETATM    4  N2  UNL     1     -35.993  10.232  49.777  1.00  0.00    -0.015 N 
HETATM    5  C1  UNL     1     -39.549  12.727  49.340  1.00  0.00     0.002 A 
HETATM    6  C2  UNL     1     -38.890  12.498  48.901  1.00  0.00     0.005 A 
HETATM    7  C3  UNL     1     -37.671  11.760  48.789  1.00  0.00     0.057 A 
HETATM    8  C4  UNL     1     -40.108  13.236  49.011  1.00  0.00     0.000 A 
HETATM    9  C5  UNL     1     -38.430  11.709  49.999  1.00  0.00     0.033 A 
HETATM   10  C6  UNL     1     -39.649  12.446  50.111  1.00  0.00     0.002 A 
HETATM   11  C7  UNL     1     -37.112  11.251  49.119  1.00  0.00     0.097 A 
HETATM   12  C8  UNL     1     -40.009  13.516  48.242  1.00  0.00     0.000 A 
HETATM   13  C9  UNL     1     -40.768  13.465  49.452  1.00  0.00     0.000 A 
HETATM   14  C10 UNL     1     -37.871  11.199  50.328  1.00  0.00     0.060 A 
HETATM   15  C11 UNL     1     -36.453  11.022  48.679  1.00  0.00     0.193 A 
HETATM   16  C12 UNL     1     -37.212  10.971  49.889  1.00  0.00     0.160 A 
HETATM   17  C13 UNL     1     -40.569  14.026  47.912  1.00  0.00     0.000 A 
HETATM   18  C14 UNL     1     -41.328  13.975  49.122  1.00  0.00     0.000 A 
HETATM   19  C15 UNL     1     -41.227  14.255  48.352  1.00  0.00     0.000 A 
HETATM   20  C16 UNL     1     -35.893  10.512  49.009  1.00  0.00     0.213 A 
HETATM   21  C17 UNL     1     -36.652  10.461  50.218  1.00  0.00     0.193 A 
ENDROOT
TORSDOF 32
ENDMDL
