MODEL 1
REMARK VINA RESULT:     325.3      0.000      0.000
REMARK  25 active torsions:
REMARK  status: ('A' for Active; 'I' for Inactive)
REMARK    1  A    between atoms: O1_1  and  C4_6 
REMARK    2  A    between atoms: O1_1  and  C12_14 
REMARK    3  A    between atoms: N1_2  and  C7_9 
REMARK    4  A    between atoms: C1_3  and  C10_12 
REMARK    5  A    between atoms: C3_5  and  C4_6 
REMARK    6  A    between atoms: C6_8  and  C11_13 
REMARK    7  A    between atoms: C7_9  and  C16_18 
REMARK    8  A    between atoms: C8_10  and  C14_16 
REMARK    9  A    between atoms: C8_10  and  C16_18 
REMARK   10  A    between atoms: C9_11  and  C10_12 
REMARK   11  A    between atoms: C9_11  and  C13_15 
REMARK   12  A    between atoms: C9_11  and  C15_17 
REMARK   13  A    between atoms: C10_12  and  C21_23 
REMARK   14  A    between atoms: C12_14  and  C13_15 
REMARK   15  A    between atoms: C12_14  and  C20_22 
REMARK   16  A    between atoms: C13_15  and  C19_21 
REMARK   17  A    between atoms: C13_15  and  C21_23 
REMARK   18  A    between atoms: C14_16  and  C15_17 
REMARK   19  A    between atoms: C14_16  and  C17_19 
REMARK   20  A    between atoms: C15_17  and  C16_18 
REMARK   21  A    between atoms: C15_17  and  C18_20 
REMARK   22  A    between atoms: C16_18  and  C17_19 
REMARK   23  A    between atoms: C17_19  and  C18_20 
REMARK   24  A    between atoms: C19_21  and  C20_22 
REMARK   25  A    between atoms: C20_22  and  C21_23 
ROOT
HETATM    1  O1  UNL     1     -41.314  13.712  49.085  1.00  0.00     0.000 OA
HETATM    2  N1  UNL     1     -38.556  12.772  49.685  1.00  0.00     0.000 N 
HETATM    3  C1  UNL     1     -40.494  12.888  48.980  1.00  0.00     0.000 A 
HETATM    4  C2  UNL     1     -39.489  11.624  48.719  1.00  0.00     0.000 A 
HETATM    5  C3  UNL     1     -40.009  11.163  48.274  1.00  0.00     0.000 A 
HETATM    6  C4  UNL     1     -41.013  12.427  48.535  1.00  0.00     0.000 A 
HETATM    7  C5  UNL     1     -39.843  10.251  47.865  1.00  0.00     0.000 A 
HETATM    8  C6  UNL     1     -40.536  13.625  49.347  1.00  0.00     0.000 A 
HETATM    9  C7  UNL     1     -37.934  11.451  49.244  1.00  0.00     0.000 A 
HETATM   10  C8  UNL     1     -37.892  10.714  48.876  1.00  0.00     0.000 A 
HETATM   11  C9  UNL     1     -39.759  13.540  49.609  1.00  0.00     0.000 A 
HETATM   12  C10 UNL     1     -40.578  14.363  49.714  1.00  0.00     0.000 A 
HETATM   13  C11 UNL     1     -39.333  12.857  49.422  1.00  0.00     0.000 A 
HETATM   14  C12 UNL     1     -41.273  14.807  49.671  1.00  0.00     0.000 A 
HETATM   15  C13 UNL     1     -39.926  14.657  50.125  1.00  0.00     0.000 A 
HETATM   16  C14 UNL     1     -38.131  12.090  49.498  1.00  0.00     0.000 A 
HETATM   17  C15 UNL     1     -38.204  13.367  50.134  1.00  0.00     0.000 A 
HETATM   18  C16 UNL     1     -37.353  12.004  49.760  1.00  0.00     0.000 A 
HETATM   19  C17 UNL     1     -37.427  13.281  50.396  1.00  0.00     0.000 A 
HETATM   20  C18 UNL     1     -37.001  12.599  50.210  1.00  0.00     0.000 A 
HETATM   21  C19 UNL     1     -41.316  15.544  50.038  1.00  0.00     0.000 A 
HETATM   22  C20 UNL     1     -39.968  15.395  50.492  1.00  0.00     0.000 A 
HETATM   23  C21 UNL     1     -40.663  15.838  50.449  1.00  0.00     0.000 A 
ENDROOT
TORSDOF 25
ENDMDL
