MODEL 1
REMARK VINA RESULT:     277.0      0.000      0.000
REMARK  23 active torsions:
REMARK  status: ('A' for Active; 'I' for Inactive)
REMARK    1  A    between atoms: N1_3  and  C1_5 
REMARK    2  A    between atoms: N2_4  and  C1_5 
REMARK    3  A    between atoms: C2_6  and  C4_8 
REMARK    4  A    between atoms: C3_7  and  C4_8 
REMARK    5  A    between atoms: C3_7  and  C7_11 
REMARK    6  A    between atoms: C4_8  and  C8_12 
REMARK    7  A    between atoms: C7_11  and  C11_15 
REMARK    8  A    between atoms: C7_11  and  C18_22 
REMARK    9  A    between atoms: C8_12  and  C12_16 
REMARK   10  A    between atoms: C8_12  and  C19_23 
REMARK   11  A    between atoms: C10_14  and  C12_16 
REMARK   12  A    between atoms: C10_14  and  C16_20 
REMARK   13  A    between atoms: C11_15  and  C12_16 
REMARK   14  A    between atoms: C11_15  and  C13_17 
REMARK   15  A    between atoms: C11_15  and  C17_21 
REMARK   16  A    between atoms: C12_16  and  C14_18 
REMARK   17  A    between atoms: C12_16  and  C18_22 
REMARK   18  A    between atoms: C13_17  and  C15_19 
REMARK   19  A    between atoms: C13_17  and  C19_23 
REMARK   20  A    between atoms: C14_18  and  C16_20 
REMARK   21  A    between atoms: C15_19  and  C17_21 
REMARK   22  A    between atoms: C16_20  and  C18_22 
REMARK   23  A    between atoms: C17_21  and  C19_23 
ROOT
HETATM    1  O1  UNL     1     -38.571  12.162  48.996  1.00  0.00    -0.339 OA
HETATM    2  O2  UNL     1     -38.585  14.629  50.528  1.00  0.00    -0.339 OA
HETATM    3  N1  UNL     1     -39.488  13.305  49.118  1.00  0.00     0.000 N 
HETATM    4  N2  UNL     1     -39.492  14.005  49.553  1.00  0.00     0.000 N 
HETATM    5  C1  UNL     1     -38.377  13.338  49.856  1.00  0.00     0.160 A 
HETATM    6  C2  UNL     1     -37.653  13.132  50.194  1.00  0.00     0.093 A 
HETATM    7  C3  UNL     1     -38.799  12.892  49.305  1.00  0.00     0.141 A 
HETATM    8  C4  UNL     1     -38.806  14.026  50.009  1.00  0.00     0.141 A 
HETATM    9  C5  UNL     1     -37.288  12.422  49.987  1.00  0.00     0.052 A 
HETATM   10  C6  UNL     1     -36.564  12.216  50.326  1.00  0.00     0.014 A 
HETATM   11  C7  UNL     1     -40.071  13.059  48.588  1.00  0.00     0.022 A 
HETATM   12  C8  UNL     1     -40.080  14.584  49.535  1.00  0.00     0.022 A 
HETATM   13  C9  UNL     1     -36.199  11.506  50.118  1.00  0.00     0.005 A 
HETATM   14  C10 UNL     1     -39.991  12.341  48.190  1.00  0.00     0.002 A 
HETATM   15  C11 UNL     1     -40.740  14.487  49.048  1.00  0.00     0.004 A 
HETATM   16  C12 UNL     1     -40.734  13.532  48.455  1.00  0.00     0.004 A 
HETATM   17  C13 UNL     1     -40.009  15.260  50.003  1.00  0.00     0.002 A 
HETATM   18  C14 UNL     1     -40.574  12.095  47.660  1.00  0.00     0.002 A 
HETATM   19  C15 UNL     1     -41.327  15.066  49.030  1.00  0.00     0.002 A 
HETATM   20  C16 UNL     1     -41.316  13.287  47.926  1.00  0.00     0.002 A 
HETATM   21  C17 UNL     1     -40.597  15.838  49.985  1.00  0.00     0.002 A 
HETATM   22  C18 UNL     1     -41.237  12.569  47.529  1.00  0.00     0.002 A 
HETATM   23  C19 UNL     1     -41.255  15.741  49.499  1.00  0.00     0.002 A 
ENDROOT
TORSDOF 23
ENDMDL
