MODEL 1
REMARK VINA RESULT:     303.2      0.000      0.000
REMARK  27 active torsions:
REMARK  status: ('A' for Active; 'I' for Inactive)
REMARK    1  A    between atoms: O1_1  and  C8_13 
REMARK    2  A    between atoms: N2_5  and  C15_20 
REMARK    3  A    between atoms: C1_6  and  C7_12 
REMARK    4  A    between atoms: C1_6  and  C8_13 
REMARK    5  A    between atoms: C2_7  and  C4_9 
REMARK    6  A    between atoms: C2_7  and  C6_11 
REMARK    7  A    between atoms: C2_7  and  C8_13 
REMARK    8  A    between atoms: C2_7  and  C10_15 
REMARK    9  A    between atoms: C3_8  and  C4_9 
REMARK   10  A    between atoms: C3_8  and  C6_11 
REMARK   11  A    between atoms: C4_9  and  C15_20 
REMARK   12  A    between atoms: C5_10  and  C9_14 
REMARK   13  A    between atoms: C6_11  and  C7_12 
REMARK   14  A    between atoms: C6_11  and  C12_17 
REMARK   15  A    between atoms: C6_11  and  C13_18 
REMARK   16  A    between atoms: C7_12  and  C8_13 
REMARK   17  A    between atoms: C7_12  and  C9_14 
REMARK   18  A    between atoms: C7_12  and  C13_18 
REMARK   19  A    between atoms: C9_14  and  C10_15 
REMARK   20  A    between atoms: C10_15  and  C11_16 
REMARK   21  A    between atoms: C10_15  and  C14_19 
REMARK   22  A    between atoms: C11_16  and  C16_21 
REMARK   23  A    between atoms: C11_16  and  C17_22 
REMARK   24  A    between atoms: C14_19  and  C15_20 
REMARK   25  A    between atoms: C14_19  and  C17_22 
REMARK   26  A    between atoms: C15_20  and  C17_22 
REMARK   27  A    between atoms: C15_20  and  C16_21 
ROOT
HETATM    1  O1  UNL     1     -38.342  10.967  49.965  1.00  0.00     0.000 OA
HETATM    2  O2  UNL     1     -35.896  11.212  50.244  1.00  0.00    -0.323 OA
HETATM    3  O3  UNL     1     -37.041  10.383  50.033  1.00  0.00    -0.323 OA
HETATM    4  N1  UNL     1     -37.355  13.210  50.317  1.00  0.00     0.000 N 
HETATM    5  N2  UNL     1     -40.970  15.754  50.231  1.00  0.00    -0.013 N 
HETATM    6  C1  UNL     1     -38.171  13.128  50.224  1.00  0.00     0.050 A 
HETATM    7  C2  UNL     1     -38.500  12.381  50.107  1.00  0.00     0.052 A 
HETATM    8  C3  UNL     1     -37.026  13.957  50.435  1.00  0.00     0.015 A 
HETATM    9  C4  UNL     1     -38.667  13.829  50.252  1.00  0.00     0.041 A 
HETATM   10  C5  UNL     1     -39.518  13.750  50.156  1.00  0.00     0.057 A 
HETATM   11  C6  UNL     1     -36.869  12.544  50.293  1.00  0.00     0.080 A 
HETATM   12  C7  UNL     1     -38.013  11.714  50.082  1.00  0.00     0.087 A 
HETATM   13  C8  UNL     1     -37.198  11.796  50.175  1.00  0.00     0.138 A 
HETATM   14  C9  UNL     1     -39.348  12.282  50.009  1.00  0.00     0.022 A 
HETATM   15  C10 UNL     1     -39.860  12.972  50.034  1.00  0.00     0.039 A 
HETATM   16  C11 UNL     1     -40.002  14.418  50.181  1.00  0.00     0.097 A 
HETATM   17  C12 UNL     1     -36.211  14.038  50.528  1.00  0.00     0.009 A 
HETATM   18  C13 UNL     1     -36.712  11.130  50.151  1.00  0.00     0.191 A 
HETATM   19  C14 UNL     1     -40.818  14.340  50.089  1.00  0.00     0.176 A 
HETATM   20  C15 UNL     1     -39.670  15.164  50.298  1.00  0.00     0.176 A 
HETATM   21  C16 UNL     1     -41.302  15.007  50.113  1.00  0.00     0.215 A 
HETATM   22  C17 UNL     1     -40.154  15.832  50.324  1.00  0.00     0.215 A 
ENDROOT
TORSDOF 27
ENDMDL
