MODEL 1
REMARK VINA RESULT:      62.9      0.000      0.000
REMARK  18 active torsions:
REMARK  status: ('A' for Active; 'I' for Inactive)
REMARK    1  A    between atoms: O1_1  and  C4_5 
REMARK    2  A    between atoms: O1_1  and  C9_10 
REMARK    3  A    between atoms: O1_1  and  C11_12 
REMARK    4  A    between atoms: C3_4  and  C4_5 
REMARK    5  A    between atoms: C3_4  and  C7_8 
REMARK    6  A    between atoms: C4_5  and  C6_7 
REMARK    7  A    between atoms: C4_5  and  C12_13 
REMARK    8  A    between atoms: C5_6  and  C6_7 
REMARK    9  A    between atoms: C5_6  and  C7_8 
REMARK   10  A    between atoms: C5_6  and  C9_10 
REMARK   11  A    between atoms: C5_6  and  C11_12 
REMARK   12  A    between atoms: C5_6  and  C12_13 
REMARK   13  A    between atoms: C6_7  and  C7_8 
REMARK   14  A    between atoms: C6_7  and  C8_9 
REMARK   15  A    between atoms: C7_8  and  C12_13 
REMARK   16  A    between atoms: C7_8  and  C10_11 
REMARK   17  A    between atoms: C8_9  and  C9_10 
REMARK   18  A    between atoms: C10_11  and  C11_12 
ROOT
HETATM    1  O1  UNL     1     -38.862  15.653  48.377  1.00  0.00     0.000 OA
HETATM    2  C1  UNL     1     -40.503  15.481  48.380  1.00  0.00     0.000 A 
HETATM    3  C2  UNL     1     -38.042  15.767  49.804  1.00  0.00     0.000 A 
HETATM    4  C3  UNL     1     -40.093  15.538  49.094  1.00  0.00     0.000 A 
HETATM    5  C4  UNL     1     -38.863  15.681  49.806  1.00  0.00     0.000 A 
HETATM    6  C5  UNL     1     -39.272  15.624  49.092  1.00  0.00     0.000 A 
HETATM    7  C6  UNL     1     -40.504  15.509  49.809  1.00  0.00     0.000 A 
HETATM    8  C7  UNL     1     -39.273  15.652  50.521  1.00  0.00     0.000 A 
HETATM    9  C8  UNL     1     -41.324  15.396  48.382  1.00  0.00     0.000 A 
HETATM   10  C9  UNL     1     -40.093  15.510  47.665  1.00  0.00     0.000 A 
HETATM   11  C10 UNL     1     -37.632  15.824  50.518  1.00  0.00     0.000 A 
HETATM   12  C11 UNL     1     -37.632  15.795  49.089  1.00  0.00     0.000 A 
HETATM   13  C12 UNL     1     -40.093  15.567  50.523  1.00  0.00     0.000 A 
ENDROOT
TORSDOF 18
ENDMDL
