MODEL 1
REMARK VINA RESULT:      72.5      0.000      0.000
REMARK  8 active torsions:
REMARK  status: ('A' for Active; 'I' for Inactive)
REMARK    1  A    between atoms: S1_1  and  N2_7 
REMARK    2  A    between atoms: S2_2  and  N2_7 
REMARK    3  A    between atoms: S2_2  and  N4_9 
REMARK    4  A    between atoms: O2_4  and  N2_7 
REMARK    5  A    between atoms: O2_4  and  C1_10 
REMARK    6  A    between atoms: N1_6  and  N4_9 
REMARK    7  A    between atoms: N1_6  and  C4_13 
REMARK    8  A    between atoms: C2_11  and  C3_12 
ROOT
HETATM    1  S1  UNL     1     -40.335  15.792  49.520  1.00  0.00    -0.034 SA
HETATM    2  S2  UNL     1     -38.914  15.775  49.143  1.00  0.00    -0.111 SA
HETATM    3  O1  UNL     1     -40.162  15.756  48.714  1.00  0.00     0.000 OA
HETATM    4  O2  UNL     1     -40.509  15.828  50.325  1.00  0.00     0.000 OA
HETATM    5  O3  UNL     1     -36.868  15.838  50.528  1.00  0.00     0.000 OA
HETATM    6  N1  UNL     1     -37.447  15.779  49.223  1.00  0.00     0.000 N 
HETATM    7  N2  UNL     1     -39.194  15.834  50.446  1.00  0.00     0.000 N 
HETATM    8  N3  UNL     1     -41.142  15.784  49.347  1.00  0.00    -0.062 NA
HETATM    9  N4  UNL     1     -38.374  15.830  50.361  1.00  0.00     0.000 N 
HETATM   10  C1  UNL     1     -39.528  15.800  49.693  1.00  0.00     0.122 A 
HETATM   11  C2  UNL     1     -38.200  15.794  49.556  1.00  0.00     0.071 A 
HETATM   12  C3  UNL     1     -36.780  15.801  49.708  1.00  0.00     0.013 A 
HETATM   13  C4  UNL     1     -36.025  15.787  49.375  1.00  0.00     0.001 A 
ENDROOT
TORSDOF 8
ENDMDL
