MODEL 1
REMARK VINA RESULT:     463.6      0.000      0.000
REMARK WARNING: 32 MAX_TORS EXCEEDED!!!
REMARK  41 active torsions:
REMARK  status: ('A' for Active; 'I' for Inactive)
REMARK    1  A    between atoms: O2_2  and  C13_20 
REMARK    2  A    between atoms: O2_2  and  C17_24 
REMARK    3  A    between atoms: O3_3  and  O4_4 
REMARK    4  A    between atoms: O3_3  and  C21_28 
REMARK    5  A    between atoms: O4_4  and  C19_26 
REMARK    6  A    between atoms: N1_5  and  C8_15 
REMARK    7  A    between atoms: N1_5  and  C4_11 
REMARK    8  A    between atoms: N1_5  and  C6_13 
REMARK    9  A    between atoms: N1_5  and  C10_17 
REMARK   10  A    between atoms: N2_6  and  C5_12 
REMARK   11  A    between atoms: N2_6  and  C7_14 
REMARK   12  A    between atoms: N3_7  and  C8_15 
REMARK   13  A    between atoms: C1_8  and  C4_11 
REMARK   14  A    between atoms: C1_8  and  C8_15 
REMARK   15  A    between atoms: C2_9  and  C3_10 
REMARK   16  A    between atoms: C2_9  and  C5_12 
REMARK   17  A    between atoms: C2_9  and  C8_15 
REMARK   18  A    between atoms: C3_10  and  C4_11 
REMARK   19  A    between atoms: C3_10  and  C6_13 
REMARK   20  A    between atoms: C4_11  and  C5_12 
REMARK   21  A    between atoms: C4_11  and  C7_14 
REMARK   22  A    between atoms: C4_11  and  C9_16 
REMARK   23  A    between atoms: C4_11  and  C14_21 
REMARK   24  A    between atoms: C5_12  and  C11_18 
REMARK   25  A    between atoms: C7_14  and  C11_18 
REMARK   26  A    between atoms: C7_14  and  C15_22 
REMARK   27  A    between atoms: C8_15  and  C13_20 
REMARK   28  A    between atoms: C9_16  and  C17_24 
REMARK   29  A    between atoms: C9_16  and  C21_28 
REMARK   30  A    between atoms: C10_17  and  C16_23 
REMARK   31  A    between atoms: C11_18  and  C12_19 
REMARK   32  A    between atoms: C12_19  and  C20_27 
REMARK   33  A    between atoms: C13_20  and  C14_21 
REMARK   34  A    between atoms: C13_20  and  C19_26 
REMARK   35  A    between atoms: C13_20  and  C21_28 
REMARK   36  A    between atoms: C14_21  and  C17_24 
REMARK   37  A    between atoms: C14_21  and  C21_28 
REMARK   38  A    between atoms: C15_22  and  C18_25 
REMARK   39  A    between atoms: C17_24  and  C19_26 
REMARK   40  A    between atoms: C18_25  and  C20_27 
REMARK   41  A    between atoms: C19_26  and  C21_28 
ROOT
HETATM    1  O1  UNL     1     -41.011  11.862  47.742  1.00  0.00    -0.368 OA
HETATM    2  O2  UNL     1     -38.124  10.780  49.073  1.00  0.00     0.000 OA
HETATM    3  O3  UNL     1     -36.592  10.323  49.814  1.00  0.00     0.000 OA
HETATM    4  O4  UNL     1     -35.824  11.159  50.503  1.00  0.00     0.000 OA
HETATM    5  N1  UNL     1     -39.089  11.853  48.840  1.00  0.00     0.000 N 
HETATM    6  N2  UNL     1     -38.493  13.790  49.758  1.00  0.00     0.000 N 
HETATM    7  N3  UNL     1     -40.067  10.769  47.957  1.00  0.00     0.000 N 
HETATM    8  C1  UNL     1     -39.797  12.119  48.513  1.00  0.00     0.064 A 
HETATM    9  C2  UNL     1     -38.612  12.372  49.268  1.00  0.00     0.021 A 
HETATM   10  C3  UNL     1     -40.029  12.904  48.614  1.00  0.00     0.040 A 
HETATM   11  C4  UNL     1     -38.844  13.157  49.369  1.00  0.00     0.020 A 
HETATM   12  C5  UNL     1     -39.553  13.424  49.042  1.00  0.00     0.021 A 
HETATM   13  C6  UNL     1     -40.303  11.588  48.066  1.00  0.00     0.091 A 
HETATM   14  C7  UNL     1     -39.634  14.217  49.232  1.00  0.00     0.007 A 
HETATM   15  C8  UNL     1     -38.836  11.038  48.742  1.00  0.00     0.022 A 
HETATM   16  C9  UNL     1     -37.902  12.107  49.595  1.00  0.00     0.005 A 
HETATM   17  C10 UNL     1     -39.329  10.492  48.297  1.00  0.00     0.029 A 
HETATM   18  C11 UNL     1     -38.981  14.442  49.673  1.00  0.00     0.004 A 
HETATM   19  C12 UNL     1     -40.252  14.777  49.045  1.00  0.00     0.002 A 
HETATM   20  C13 UNL     1     -37.670  11.322  49.494  1.00  0.00     0.004 A 
HETATM   21  C14 UNL     1     -37.425  12.626  50.023  1.00  0.00     0.004 A 
HETATM   22  C15 UNL     1     -38.901  15.244  49.958  1.00  0.00     0.000 A 
HETATM   23  C16 UNL     1     -40.547  10.252  47.528  1.00  0.00     0.030 A 
HETATM   24  C17 UNL     1     -36.961  11.055  49.821  1.00  0.00     0.001 A 
HETATM   25  C18 UNL     1     -40.188  15.583  49.321  1.00  0.00     0.000 A 
HETATM   26  C19 UNL     1     -36.715  12.361  50.350  1.00  0.00     0.001 A 
HETATM   27  C20 UNL     1     -39.508  15.818  49.781  1.00  0.00     0.000 A 
HETATM   28  C21 UNL     1     -36.483  11.575  50.249  1.00  0.00     0.001 A 
HETATM   29  C22 UNL     1     -35.890  10.387  50.235  1.00  0.00     0.000 A 
ENDROOT
TORSDOF 41
ENDMDL
