MODEL 1
REMARK VINA RESULT:      79.5      0.000      0.000
REMARK  16 active torsions:
REMARK  status: ('A' for Active; 'I' for Inactive)
REMARK    1  A    between atoms: O1_1  and  C3_9 
REMARK    2  A    between atoms: O2_2  and  C4_10 
REMARK    3  A    between atoms: N1_3  and  N2_4 
REMARK    4  A    between atoms: N1_3  and  C4_10 
REMARK    5  A    between atoms: N2_4  and  C4_10 
REMARK    6  A    between atoms: N3_5  and  N4_6 
REMARK    7  A    between atoms: N3_5  and  C6_12 
REMARK    8  A    between atoms: N4_6  and  C8_14 
REMARK    9  A    between atoms: C1_7  and  C5_11 
REMARK   10  A    between atoms: C2_8  and  C5_11 
REMARK   11  A    between atoms: C2_8  and  C6_12 
REMARK   12  A    between atoms: C2_8  and  C8_14 
REMARK   13  A    between atoms: C3_9  and  C5_11 
REMARK   14  A    between atoms: C4_10  and  C6_12 
REMARK   15  A    between atoms: C4_10  and  C5_11 
REMARK   16  A    between atoms: C5_11  and  C6_12 
ROOT
HETATM    1  O1  UNL     1     -38.240  15.830  49.822  1.00  0.00     0.000 OA
HETATM    2  O2  UNL     1     -41.009  15.724  50.525  1.00  0.00     0.000 OA
HETATM    3  N1  UNL     1     -39.224  15.579  48.816  1.00  0.00     0.000 N 
HETATM    4  N2  UNL     1     -39.624  15.777  50.173  1.00  0.00     0.000 N 
HETATM    5  N3  UNL     1     -41.327  15.404  48.792  1.00  0.00     0.000 N 
HETATM    6  N4  UNL     1     -40.369  15.326  47.875  1.00  0.00     0.134 N 
HETATM    7  C1  UNL     1     -38.629  15.530  48.246  1.00  0.00     0.050 A 
HETATM    8  C2  UNL     1     -40.012  15.478  48.598  1.00  0.00     0.206 A 
HETATM    9  C3  UNL     1     -37.840  15.631  48.464  1.00  0.00     0.027 A 
HETATM   10  C4  UNL     1     -40.607  15.526  49.167  1.00  0.00     0.226 A 
HETATM   11  C5  UNL     1     -39.030  15.728  49.603  1.00  0.00     0.066 A 
HETATM   12  C6  UNL     1     -40.414  15.676  49.955  1.00  0.00     0.066 A 
HETATM   13  C7  UNL     1     -37.245  15.583  47.894  1.00  0.00    -0.050 A 
HETATM   14  C8  UNL     1     -41.179  15.280  47.994  1.00  0.00     0.276 A 
ENDROOT
TORSDOF 16
ENDMDL
