MODEL 1
REMARK VINA RESULT:     204.0      0.000      0.000
REMARK  22 active torsions:
REMARK  status: ('A' for Active; 'I' for Inactive)
REMARK    1  A    between atoms: O1_1  and  O2_2 
REMARK    2  A    between atoms: O1_1  and  C5_12 
REMARK    3  A    between atoms: O2_2  and  C6_13 
REMARK    4  A    between atoms: O3_3  and  C9_16 
REMARK    5  A    between atoms: N2_7  and  C8_15 
REMARK    6  A    between atoms: N2_7  and  C12_19 
REMARK    7  A    between atoms: C1_8  and  C3_10 
REMARK    8  A    between atoms: C1_8  and  C5_12 
REMARK    9  A    between atoms: C1_8  and  C7_14 
REMARK   10  A    between atoms: C1_8  and  C8_15 
REMARK   11  A    between atoms: C2_9  and  C3_10 
REMARK   12  A    between atoms: C2_9  and  C4_11 
REMARK   13  A    between atoms: C2_9  and  C5_12 
REMARK   14  A    between atoms: C2_9  and  C9_16 
REMARK   15  A    between atoms: C3_10  and  C6_13 
REMARK   16  A    between atoms: C4_11  and  C5_12 
REMARK   17  A    between atoms: C4_11  and  C6_13 
REMARK   18  A    between atoms: C4_11  and  C7_14 
REMARK   19  A    between atoms: C5_12  and  C6_13 
REMARK   20  A    between atoms: C6_13  and  C8_15 
REMARK   21  A    between atoms: C8_15  and  C9_16 
REMARK   22  A    between atoms: C8_15  and  C12_19 
ROOT
HETATM    1  O1  UNL     1     -40.236  10.904  48.117  1.00  0.00     0.000 OA
HETATM    2  O2  UNL     1     -41.258  11.529  47.543  1.00  0.00     0.000 OA
HETATM    3  O3  UNL     1     -41.321  14.479  48.523  1.00  0.00     0.000 OA
HETATM    4  O4  UNL     1     -39.831  15.732  50.114  1.00  0.00    -0.310 OA
HETATM    5  O5  UNL     1     -40.956  15.709  49.234  1.00  0.00    -0.310 OA
HETATM    6  N1  UNL     1     -39.371  13.294  49.620  1.00  0.00     0.000 N 
HETATM    7  N2  UNL     1     -39.515  14.123  49.798  1.00  0.00     0.000 N 
HETATM    8  C1  UNL     1     -39.890  12.882  49.074  1.00  0.00     0.016 A 
HETATM    9  C2  UNL     1     -40.525  13.270  48.718  1.00  0.00     0.045 A 
HETATM   10  C3  UNL     1     -40.239  11.680  48.385  1.00  0.00     0.006 A 
HETATM   11  C4  UNL     1     -39.747  12.086  48.908  1.00  0.00     0.009 A 
HETATM   12  C5  UNL     1     -40.874  12.068  48.029  1.00  0.00     0.006 A 
HETATM   13  C6  UNL     1     -41.016  12.863  48.195  1.00  0.00     0.014 A 
HETATM   14  C7  UNL     1     -38.739  12.898  49.972  1.00  0.00     0.022 A 
HETATM   15  C8  UNL     1     -40.684  14.098  48.883  1.00  0.00     0.095 A 
HETATM   16  C9  UNL     1     -40.175  14.527  49.427  1.00  0.00     0.200 A 
HETATM   17  C10 UNL     1     -40.864  10.812  47.598  1.00  0.00     0.000 A 
HETATM   18  C11 UNL     1     -38.241  13.297  50.496  1.00  0.00    -0.031 A 
HETATM   19  C12 UNL     1     -40.321  15.323  49.592  1.00  0.00     0.238 A 
ENDROOT
TORSDOF 22
ENDMDL
