MODEL 1
REMARK VINA RESULT:      16.9      0.000      0.000
REMARK  2 active torsions:
REMARK  status: ('A' for Active; 'I' for Inactive)
REMARK    1  A    between atoms: P1_1  and  C2_7 
REMARK    2  A    between atoms: O4_5  and  C1_6 
ROOT
HETATM    1  P1  UNL     1     -39.368  15.776  49.339  1.00  0.00    -0.062 P 
HETATM    2  O1  UNL     1     -40.909  15.761  48.931  1.00  0.00     0.000 OA
HETATM    3  O2  UNL     1     -38.543  15.780  49.336  1.00  0.00     0.000 OA
HETATM    4  O3  UNL     1     -39.370  15.760  48.514  1.00  0.00     0.000 OA
HETATM    5  O4  UNL     1     -39.365  15.793  50.164  1.00  0.00     0.000 OA
HETATM    6  C1  UNL     1     -40.193  15.772  49.341  1.00  0.00     0.026 A 
HETATM    7  C2  UNL     1     -40.906  15.777  49.756  1.00  0.00     0.026 A 
HETATM    8  C3  UNL     1     -41.316  15.789  50.472  1.00  0.00     0.010 A 
ENDROOT
TORSDOF 2
ENDMDL
MODEL 2
REMARK VINA RESULT:      18.0      1.047      2.033
REMARK  2 active torsions:
REMARK  status: ('A' for Active; 'I' for Inactive)
REMARK    1  A    between atoms: P1_1  and  C2_7 
REMARK    2  A    between atoms: O4_5  and  C1_6 
ROOT
HETATM    1  P1  UNL     1     -40.635  15.642  49.175  1.00  0.00    -0.062 P 
HETATM    2  O1  UNL     1     -39.802  15.776  50.528  1.00  0.00     0.000 OA
HETATM    3  O2  UNL     1     -41.233  15.567  48.611  1.00  0.00     0.000 OA
HETATM    4  O3  UNL     1     -41.200  15.629  49.776  1.00  0.00     0.000 OA
HETATM    5  O4  UNL     1     -40.070  15.655  48.574  1.00  0.00     0.000 OA
HETATM    6  C1  UNL     1     -40.037  15.717  49.738  1.00  0.00     0.026 A 
HETATM    7  C2  UNL     1     -39.237  15.789  49.927  1.00  0.00     0.026 A 
HETATM    8  C3  UNL     1     -38.449  15.838  49.687  1.00  0.00     0.010 A 
ENDROOT
TORSDOF 2
ENDMDL
MODEL 3
REMARK VINA RESULT:      19.7      1.788      2.116
REMARK  2 active torsions:
REMARK  status: ('A' for Active; 'I' for Inactive)
REMARK    1  A    between atoms: P1_1  and  C2_7 
REMARK    2  A    between atoms: O4_5  and  C1_6 
ROOT
HETATM    1  P1  UNL     1     -41.309  14.191  48.861  1.00  0.00    -0.062 P 
HETATM    2  O1  UNL     1     -41.324  15.784  48.932  1.00  0.00     0.000 OA
HETATM    3  O2  UNL     1     -41.305  13.405  48.612  1.00  0.00     0.000 OA
HETATM    4  O3  UNL     1     -41.326  14.440  48.075  1.00  0.00     0.000 OA
HETATM    5  O4  UNL     1     -41.291  13.943  49.648  1.00  0.00     0.000 OA
HETATM    6  C1  UNL     1     -41.312  14.978  49.110  1.00  0.00     0.026 A 
HETATM    7  C2  UNL     1     -41.306  15.535  49.718  1.00  0.00     0.026 A 
HETATM    8  C3  UNL     1     -41.292  15.713  50.524  1.00  0.00     0.010 A 
ENDROOT
TORSDOF 2
ENDMDL
