MODEL 1
REMARK VINA RESULT:     224.1      0.000      0.000
REMARK  26 active torsions:
REMARK  status: ('A' for Active; 'I' for Inactive)
REMARK    1  A    between atoms: CL1_1  and  C11_15 
REMARK    2  A    between atoms: O1_2  and  C4_8 
REMARK    3  A    between atoms: O1_2  and  C9_13 
REMARK    4  A    between atoms: N1_3  and  C4_8 
REMARK    5  A    between atoms: N2_4  and  C5_9 
REMARK    6  A    between atoms: C1_5  and  C6_10 
REMARK    7  A    between atoms: C1_5  and  C8_12 
REMARK    8  A    between atoms: C1_5  and  C10_14 
REMARK    9  A    between atoms: C1_5  and  C13_17 
REMARK   10  A    between atoms: C2_6  and  C3_7 
REMARK   11  A    between atoms: C3_7  and  C7_11 
REMARK   12  A    between atoms: C4_8  and  C5_9 
REMARK   13  A    between atoms: C5_9  and  C9_13 
REMARK   14  A    between atoms: C6_10  and  C7_11 
REMARK   15  A    between atoms: C6_10  and  C16_20 
REMARK   16  A    between atoms: C7_11  and  C11_15 
REMARK   17  A    between atoms: C7_11  and  C13_17 
REMARK   18  A    between atoms: C8_12  and  C9_13 
REMARK   19  A    between atoms: C8_12  and  C10_14 
REMARK   20  A    between atoms: C10_14  and  C11_15 
REMARK   21  A    between atoms: C12_16  and  C13_17 
REMARK   22  A    between atoms: C12_16  and  C15_19 
REMARK   23  A    between atoms: C13_17  and  C14_18 
REMARK   24  A    between atoms: C13_17  and  C16_20 
REMARK   25  A    between atoms: C14_18  and  C15_19 
REMARK   26  A    between atoms: C15_19  and  C16_20 
ROOT
HETATM    1 CL1  UNL     1     -38.024  12.211  50.209  1.00  0.00    -0.251 Cl
HETATM    2  O1  UNL     1     -41.328  15.566  49.849  1.00  0.00     0.000 OA
HETATM    3  N1  UNL     1     -40.516  14.432  49.939  1.00  0.00     0.000 N 
HETATM    4  N2  UNL     1     -39.150  15.678  50.071  1.00  0.00     0.000 N 
HETATM    5  C1  UNL     1     -39.057  14.195  50.090  1.00  0.00     0.022 A 
HETATM    6  C2  UNL     1     -39.844  13.961  50.011  1.00  0.00     0.020 A 
HETATM    7  C3  UNL     1     -38.748  14.959  50.117  1.00  0.00     0.012 A 
HETATM    8  C4  UNL     1     -39.960  15.811  49.987  1.00  0.00     0.001 A 
HETATM    9  C5  UNL     1     -40.568  15.256  49.929  1.00  0.00     0.002 A 
HETATM   10  C6  UNL     1     -37.929  15.012  50.201  1.00  0.00     0.010 A 
HETATM   11  C7  UNL     1     -38.427  13.614  50.158  1.00  0.00     0.033 A 
HETATM   12  C8  UNL     1     -40.056  13.129  49.995  1.00  0.00     0.025 A 
HETATM   13  C9  UNL     1     -41.232  14.028  49.868  1.00  0.00     0.004 A 
HETATM   14  C10 UNL     1     -38.621  12.776  50.144  1.00  0.00     0.052 A 
HETATM   15  C11 UNL     1     -39.441  12.532  50.062  1.00  0.00     0.052 A 
HETATM   16  C12 UNL     1     -37.565  15.751  50.233  1.00  0.00     0.003 A 
HETATM   17  C13 UNL     1     -37.474  14.325  50.252  1.00  0.00     0.010 A 
HETATM   18  C14 UNL     1     -36.745  15.803  50.317  1.00  0.00     0.002 A 
HETATM   19  C15 UNL     1     -36.655  14.378  50.335  1.00  0.00     0.002 A 
HETATM   20  C16 UNL     1     -36.291  15.117  50.368  1.00  0.00     0.002 A 
ENDROOT
TORSDOF 26
ENDMDL
