MODEL 1
REMARK VINA RESULT:      66.0      0.000      0.000
REMARK  17 active torsions:
REMARK  status: ('A' for Active; 'I' for Inactive)
REMARK    1  A    between atoms: O1_1  and  C3_5 
REMARK    2  A    between atoms: N1_2  and  C4_6 
REMARK    3  A    between atoms: C1_3  and  C4_6 
REMARK    4  A    between atoms: C1_3  and  C5_7 
REMARK    5  A    between atoms: C1_3  and  C7_9 
REMARK    6  A    between atoms: C2_4  and  C3_5 
REMARK    7  A    between atoms: C2_4  and  C6_8 
REMARK    8  A    between atoms: C3_5  and  C4_6 
REMARK    9  A    between atoms: C5_7  and  C6_8 
REMARK   10  A    between atoms: C5_7  and  C11_13 
REMARK   11  A    between atoms: C6_8  and  C7_9 
REMARK   12  A    between atoms: C7_9  and  C8_10 
REMARK   13  A    between atoms: C7_9  and  C10_12 
REMARK   14  A    between atoms: C8_10  and  C9_11 
REMARK   15  A    between atoms: C8_10  and  C11_13 
REMARK   16  A    between atoms: C9_11  and  C10_12 
REMARK   17  A    between atoms: C10_12  and  C11_13 
ROOT
HETATM    1  O1  UNL     1     -38.790  15.477  48.384  1.00  0.00     0.000 OA
HETATM    2  N1  UNL     1     -37.605  15.826  49.478  1.00  0.00     0.000 N 
HETATM    3  C1  UNL     1     -38.387  15.741  49.729  1.00  0.00     0.000 A 
HETATM    4  C2  UNL     1     -38.980  15.567  49.182  1.00  0.00     0.000 A 
HETATM    5  C3  UNL     1     -37.417  15.736  48.680  1.00  0.00     0.000 A 
HETATM    6  C4  UNL     1     -38.010  15.561  48.133  1.00  0.00     0.000 A 
HETATM    7  C5  UNL     1     -39.760  15.483  49.433  1.00  0.00     0.000 A 
HETATM    8  C6  UNL     1     -38.575  15.832  50.527  1.00  0.00     0.000 A 
HETATM    9  C7  UNL     1     -39.949  15.573  50.230  1.00  0.00     0.000 A 
HETATM   10  C8  UNL     1     -40.353  15.308  48.886  1.00  0.00     0.000 A 
HETATM   11  C9  UNL     1     -40.731  15.488  50.482  1.00  0.00     0.000 A 
HETATM   12  C10 UNL     1     -41.134  15.224  49.137  1.00  0.00     0.000 A 
HETATM   13  C11 UNL     1     -41.323  15.314  49.935  1.00  0.00     0.000 A 
ENDROOT
TORSDOF 17
ENDMDL
MODEL 2
REMARK VINA RESULT:      66.5      1.285      2.583
REMARK  17 active torsions:
REMARK  status: ('A' for Active; 'I' for Inactive)
REMARK    1  A    between atoms: O1_1  and  C3_5 
REMARK    2  A    between atoms: N1_2  and  C4_6 
REMARK    3  A    between atoms: C1_3  and  C4_6 
REMARK    4  A    between atoms: C1_3  and  C5_7 
REMARK    5  A    between atoms: C1_3  and  C7_9 
REMARK    6  A    between atoms: C2_4  and  C3_5 
REMARK    7  A    between atoms: C2_4  and  C6_8 
REMARK    8  A    between atoms: C3_5  and  C4_6 
REMARK    9  A    between atoms: C5_7  and  C6_8 
REMARK   10  A    between atoms: C5_7  and  C11_13 
REMARK   11  A    between atoms: C6_8  and  C7_9 
REMARK   12  A    between atoms: C7_9  and  C8_10 
REMARK   13  A    between atoms: C7_9  and  C10_12 
REMARK   14  A    between atoms: C8_10  and  C9_11 
REMARK   15  A    between atoms: C8_10  and  C11_13 
REMARK   16  A    between atoms: C9_11  and  C10_12 
REMARK   17  A    between atoms: C10_12  and  C11_13 
ROOT
HETATM    1  O1  UNL     1     -39.968  14.888  48.365  1.00  0.00     0.000 OA
HETATM    2  N1  UNL     1     -41.226  14.687  49.415  1.00  0.00     0.000 N 
HETATM    3  C1  UNL     1     -40.494  14.949  49.692  1.00  0.00     0.000 A 
HETATM    4  C2  UNL     1     -39.865  15.050  49.168  1.00  0.00     0.000 A 
HETATM    5  C3  UNL     1     -41.327  14.525  48.612  1.00  0.00     0.000 A 
HETATM    6  C4  UNL     1     -40.699  14.626  48.087  1.00  0.00     0.000 A 
HETATM    7  C5  UNL     1     -39.135  15.312  49.446  1.00  0.00     0.000 A 
HETATM    8  C6  UNL     1     -40.392  15.111  50.495  1.00  0.00     0.000 A 
HETATM    9  C7  UNL     1     -39.032  15.474  50.247  1.00  0.00     0.000 A 
HETATM   10  C8  UNL     1     -38.506  15.413  48.921  1.00  0.00     0.000 A 
HETATM   11  C9  UNL     1     -38.301  15.736  50.526  1.00  0.00     0.000 A 
HETATM   12  C10 UNL     1     -37.775  15.675  49.198  1.00  0.00     0.000 A 
HETATM   13  C11 UNL     1     -37.672  15.837  50.001  1.00  0.00     0.000 A 
ENDROOT
TORSDOF 17
ENDMDL
MODEL 3
REMARK VINA RESULT:      68.5      1.060      2.637
REMARK  17 active torsions:
REMARK  status: ('A' for Active; 'I' for Inactive)
REMARK    1  A    between atoms: O1_1  and  C3_5 
REMARK    2  A    between atoms: N1_2  and  C4_6 
REMARK    3  A    between atoms: C1_3  and  C4_6 
REMARK    4  A    between atoms: C1_3  and  C5_7 
REMARK    5  A    between atoms: C1_3  and  C7_9 
REMARK    6  A    between atoms: C2_4  and  C3_5 
REMARK    7  A    between atoms: C2_4  and  C6_8 
REMARK    8  A    between atoms: C3_5  and  C4_6 
REMARK    9  A    between atoms: C5_7  and  C6_8 
REMARK   10  A    between atoms: C5_7  and  C11_13 
REMARK   11  A    between atoms: C6_8  and  C7_9 
REMARK   12  A    between atoms: C7_9  and  C8_10 
REMARK   13  A    between atoms: C7_9  and  C10_12 
REMARK   14  A    between atoms: C8_10  and  C9_11 
REMARK   15  A    between atoms: C8_10  and  C11_13 
REMARK   16  A    between atoms: C9_11  and  C10_12 
REMARK   17  A    between atoms: C10_12  and  C11_13 
ROOT
HETATM    1  O1  UNL     1     -40.396  15.691  48.876  1.00  0.00     0.000 OA
HETATM    2  N1  UNL     1     -40.399  15.762  50.525  1.00  0.00     0.000 N 
HETATM    3  C1  UNL     1     -39.685  15.780  50.112  1.00  0.00     0.000 A 
HETATM    4  C2  UNL     1     -39.683  15.745  49.288  1.00  0.00     0.000 A 
HETATM    5  C3  UNL     1     -41.112  15.708  50.112  1.00  0.00     0.000 A 
HETATM    6  C4  UNL     1     -41.110  15.673  49.288  1.00  0.00     0.000 A 
HETATM    7  C5  UNL     1     -38.969  15.764  48.876  1.00  0.00     0.000 A 
HETATM    8  C6  UNL     1     -38.972  15.834  50.524  1.00  0.00     0.000 A 
HETATM    9  C7  UNL     1     -38.257  15.818  49.287  1.00  0.00     0.000 A 
HETATM   10  C8  UNL     1     -38.968  15.729  48.051  1.00  0.00     0.000 A 
HETATM   11  C9  UNL     1     -37.542  15.836  48.875  1.00  0.00     0.000 A 
HETATM   12  C10 UNL     1     -38.254  15.747  47.639  1.00  0.00     0.000 A 
HETATM   13  C11 UNL     1     -37.541  15.801  48.051  1.00  0.00     0.000 A 
ENDROOT
TORSDOF 17
ENDMDL
