MODEL 1
REMARK VINA RESULT:     530.6      0.000      0.000
REMARK WARNING: 32 MAX_TORS EXCEEDED!!!
REMARK  38 active torsions:
REMARK  status: ('A' for Active; 'I' for Inactive)
REMARK    1  A    between atoms: S1_1  and  N3_7 
REMARK    2  A    between atoms: S1_1  and  C10_17 
REMARK    3  A    between atoms: F1_2  and  C13_20 
REMARK    4  A    between atoms: F1_2  and  C15_22 
REMARK    5  A    between atoms: F2_3  and  C15_22 
REMARK    6  A    between atoms: F2_3  and  C18_25 
REMARK    7  A    between atoms: N1_5  and  C5_12 
REMARK    8  A    between atoms: N2_6  and  C2_9 
REMARK    9  A    between atoms: N3_7  and  C11_18 
REMARK   10  A    between atoms: N3_7  and  C12_19 
REMARK   11  A    between atoms: C1_8  and  C5_12 
REMARK   12  A    between atoms: C2_9  and  C5_12 
REMARK   13  A    between atoms: C2_9  and  C3_10 
REMARK   14  A    between atoms: C2_9  and  C4_11 
REMARK   15  A    between atoms: C2_9  and  C6_13 
REMARK   16  A    between atoms: C3_10  and  C7_14 
REMARK   17  A    between atoms: C5_12  and  C8_15 
REMARK   18  A    between atoms: C6_13  and  C10_17 
REMARK   19  A    between atoms: C6_13  and  C14_21 
REMARK   20  A    between atoms: C7_14  and  C13_20 
REMARK   21  A    between atoms: C7_14  and  C14_21 
REMARK   22  A    between atoms: C9_16  and  C10_17 
REMARK   23  A    between atoms: C9_16  and  C12_19 
REMARK   24  A    between atoms: C9_16  and  C16_23 
REMARK   25  A    between atoms: C10_17  and  C12_19 
REMARK   26  A    between atoms: C10_17  and  C11_18 
REMARK   27  A    between atoms: C10_17  and  C17_24 
REMARK   28  A    between atoms: C11_18  and  C13_20 
REMARK   29  A    between atoms: C11_18  and  C18_25 
REMARK   30  A    between atoms: C12_19  and  C14_21 
REMARK   31  A    between atoms: C13_20  and  C21_28 
REMARK   32  A    between atoms: C14_21  and  C20_27 
REMARK   33  A    between atoms: C15_22  and  C21_28 
REMARK   34  A    between atoms: C15_22  and  C16_23 
REMARK   35  A    between atoms: C16_23  and  C18_25 
REMARK   36  A    between atoms: C17_24  and  C19_26 
REMARK   37  A    between atoms: C18_25  and  C21_28 
REMARK   38  A    between atoms: C19_26  and  C20_27 
ROOT
HETATM    1  S1  UNL     1     -38.264  10.521  49.959  1.00  0.00    -0.216 SA
HETATM    2  N1  UNL     1     -39.335  14.319  48.092  1.00  0.00     0.000 N 
HETATM    3  N2  UNL     1     -40.653  15.297  47.921  1.00  0.00     0.000 N 
HETATM    4  N3  UNL     1     -38.140  11.931  49.111  1.00  0.00     0.000 N 
HETATM    5  C1  UNL     1     -39.274  15.024  47.668  1.00  0.00     0.000 A 
HETATM    6  C2  UNL     1     -40.055  14.102  48.431  1.00  0.00     0.001 A 
HETATM    7  C3  UNL     1     -38.677  13.830  48.178  1.00  0.00     0.005 A 
HETATM    8  C4  UNL     1     -39.932  15.512  47.583  1.00  0.00     0.000 A 
HETATM    9  C5  UNL     1     -40.715  14.592  48.345  1.00  0.00     0.000 A 
HETATM   10  C6  UNL     1     -38.738  13.125  48.602  1.00  0.00     0.011 A 
HETATM   11  C7  UNL     1     -38.079  12.636  48.687  1.00  0.00     0.044 A 
HETATM   12  C8  UNL     1     -41.312  15.785  47.836  1.00  0.00     0.000 A 
HETATM   13  C9  UNL     1     -37.482  11.443  49.197  1.00  0.00     0.083 A 
HETATM   14  C10 UNL     1     -38.861  11.716  49.450  1.00  0.00     0.029 A 
HETATM   15  C11 UNL     1     -37.543  10.738  49.621  1.00  0.00     0.082 A 
HETATM   16  C12 UNL     1     -38.923  11.011  49.874  1.00  0.00     0.032 A 
HETATM   17  C13 UNL     1     -36.737  11.679  48.839  1.00  0.00     0.162 A 
HETATM   18  C14 UNL     1     -39.540  12.233  49.354  1.00  0.00     0.018 A 
HETATM   19  C15 UNL     1     -36.047  11.174  48.925  1.00  0.00     0.180 A 
HETATM   20  C16 UNL     1     -36.865  10.220  49.717  1.00  0.00     0.104 A 
HETATM   21  C17 UNL     1     -39.668  10.774  50.231  1.00  0.00     0.023 A 
HETATM   22  C18 UNL     1     -36.111  10.440  49.366  1.00  0.00     0.183 A 
HETATM   23  C19 UNL     1     -40.294  12.014  49.704  1.00  0.00     0.016 A 
HETATM   24  C20 UNL     1     -40.358  11.280  50.146  1.00  0.00     0.017 A 
ENDROOT
BRANCH  17  25
HETATM   25  F1  UNL     1     -35.676  12.081  48.292  1.00  0.00    -0.381 F 
HETATM   26  C21 UNL     1     -36.009  12.835  48.322  1.00  0.00     0.258 A 
HETATM   27  F2  UNL     1     -36.344  13.589  48.352  1.00  0.00    -0.379 F 
HETATM   28  F3  UNL     1     -35.335  13.148  47.966  1.00  0.00    -0.272 F 
ENDBRANCH  17  25
TORSDOF 38
ENDMDL
