MODEL 1
REMARK VINA RESULT:     256.0      0.000      0.000
REMARK WARNING: 32 MAX_TORS EXCEEDED!!!
REMARK  37 active torsions:
REMARK  status: ('A' for Active; 'I' for Inactive)
REMARK    1  A    between atoms: S1_1  and  C8_17 
REMARK    2  A    between atoms: F2_3  and  C12_21 
REMARK    3  A    between atoms: F2_3  and  C13_22 
REMARK    4  A    between atoms: F3_4  and  C11_20 
REMARK    5  A    between atoms: F3_4  and  C12_21 
REMARK    6  A    between atoms: O1_5  and  C1_10 
REMARK    7  A    between atoms: O2_6  and  O4_8 
REMARK    8  A    between atoms: O3_7  and  C11_20 
REMARK    9  A    between atoms: O4_8  and  C6_15 
REMARK   10  A    between atoms: O4_8  and  C8_17 
REMARK   11  A    between atoms: O4_8  and  C14_23 
REMARK   12  A    between atoms: N1_9  and  C5_14 
REMARK   13  A    between atoms: C1_10  and  C4_13 
REMARK   14  A    between atoms: C1_10  and  C5_14 
REMARK   15  A    between atoms: C2_11  and  C4_13 
REMARK   16  A    between atoms: C3_12  and  C4_13 
REMARK   17  A    between atoms: C4_13  and  C6_15 
REMARK   18  A    between atoms: C4_13  and  C7_16 
REMARK   19  A    between atoms: C5_14  and  C7_16 
REMARK   20  A    between atoms: C5_14  and  C8_17 
REMARK   21  A    between atoms: C5_14  and  C10_19 
REMARK   22  A    between atoms: C6_15  and  C7_16 
REMARK   23  A    between atoms: C6_15  and  C9_18 
REMARK   24  A    between atoms: C7_16  and  C10_19 
REMARK   25  A    between atoms: C8_17  and  C9_18 
REMARK   26  A    between atoms: C8_17  and  C11_20 
REMARK   27  A    between atoms: C8_17  and  C12_21 
REMARK   28  A    between atoms: C9_18  and  C10_19 
REMARK   29  A    between atoms: C9_18  and  C13_22 
REMARK   30  A    between atoms: C9_18  and  C14_23 
REMARK   31  A    between atoms: C10_19  and  C11_20 
REMARK   32  A    between atoms: C10_19  and  C12_21 
REMARK   33  A    between atoms: C11_20  and  C13_22 
REMARK   34  A    between atoms: C11_20  and  C15_24 
REMARK   35  A    between atoms: C12_21  and  C13_22 
REMARK   36  A    between atoms: C12_21  and  C15_24 
REMARK   37  A    between atoms: C13_22  and  C15_24 
ROOT
HETATM    1  S1  UNL     1     -37.725  15.415  49.660  1.00  0.00    -0.178 SA
HETATM    2  O1  UNL     1     -41.321  14.770  48.742  1.00  0.00     0.000 OA
HETATM    3  O2  UNL     1     -39.144  15.460  49.820  1.00  0.00     0.000 OA
HETATM    4  O3  UNL     1     -36.906  15.390  49.568  1.00  0.00     0.000 OA
HETATM    5  O4  UNL     1     -38.544  15.441  49.753  1.00  0.00     0.000 OA
HETATM    6  N1  UNL     1     -40.992  14.403  48.082  1.00  0.00     0.128 N 
HETATM    7  C4  UNL     1     -40.704  15.057  49.208  1.00  0.00     0.184 A 
HETATM    8  C5  UNL     1     -39.994  14.868  48.835  1.00  0.00     0.206 A 
HETATM    9  C6  UNL     1     -39.237  15.050  49.110  1.00  0.00     0.116 A 
HETATM   10  C7  UNL     1     -40.171  14.463  48.138  1.00  0.00     0.236 A 
HETATM   11  C8  UNL     1     -38.574  14.824  48.675  1.00  0.00     0.133 A 
HETATM   12  C9  UNL     1     -37.818  15.006  48.950  1.00  0.00     0.118 A 
HETATM   13  C10 UNL     1     -38.667  14.414  47.965  1.00  0.00     0.153 A 
HETATM   14  C11 UNL     1     -37.155  14.780  48.515  1.00  0.00     0.157 A 
HETATM   15  C12 UNL     1     -37.248  14.370  47.805  1.00  0.00     0.166 A 
HETATM   16  C13 UNL     1     -38.004  14.187  47.530  1.00  0.00     0.175 A 
HETATM   17  C14 UNL     1     -37.632  15.825  50.370  1.00  0.00     0.054 A 
ENDROOT
BRANCH  14  18
HETATM   18  F3  UNL     1     -36.095  14.485  47.939  1.00  0.00    -0.381 F 
HETATM   19  C15 UNL     1     -36.396  13.717  47.932  1.00  0.00     0.256 A 
HETATM   20  F1  UNL     1     -35.717  13.453  47.548  1.00  0.00    -0.271 F 
HETATM   21  F2  UNL     1     -36.699  12.950  47.927  1.00  0.00    -0.382 F 
ENDBRANCH  14  18
BRANCH   8  22
HETATM   22  C1  UNL     1     -40.784  15.463  49.922  1.00  0.00     0.059 A 
HETATM   23  C2  UNL     1     -41.323  15.032  50.374  1.00  0.00     0.034 A 
HETATM   24  C3  UNL     1     -41.208  15.835  50.524  1.00  0.00     0.034 A 
ENDBRANCH   8  22
TORSDOF 37
ENDMDL
