MODEL 1
REMARK VINA RESULT:     226.5      0.000      0.000
REMARK  24 active torsions:
REMARK  status: ('A' for Active; 'I' for Inactive)
REMARK    1  A    between atoms: CL1_1  and  C10_15 
REMARK    2  A    between atoms: O1_2  and  C8_13 
REMARK    3  A    between atoms: O2_3  and  C5_10 
REMARK    4  A    between atoms: N1_4  and  C5_10 
REMARK    5  A    between atoms: N2_5  and  C8_13 
REMARK    6  A    between atoms: C1_6  and  C4_9 
REMARK    7  A    between atoms: C1_6  and  C7_12 
REMARK    8  A    between atoms: C1_6  and  C9_14 
REMARK    9  A    between atoms: C1_6  and  C12_17 
REMARK   10  A    between atoms: C2_7  and  C3_8 
REMARK   11  A    between atoms: C3_8  and  C6_11 
REMARK   12  A    between atoms: C4_9  and  C6_11 
REMARK   13  A    between atoms: C4_9  and  C15_20 
REMARK   14  A    between atoms: C5_10  and  C8_13 
REMARK   15  A    between atoms: C6_11  and  C10_15 
REMARK   16  A    between atoms: C6_11  and  C12_17 
REMARK   17  A    between atoms: C7_12  and  C9_14 
REMARK   18  A    between atoms: C9_14  and  C10_15 
REMARK   19  A    between atoms: C11_16  and  C12_17 
REMARK   20  A    between atoms: C11_16  and  C14_19 
REMARK   21  A    between atoms: C12_17  and  C13_18 
REMARK   22  A    between atoms: C12_17  and  C15_20 
REMARK   23  A    between atoms: C13_18  and  C14_19 
REMARK   24  A    between atoms: C14_19  and  C15_20 
ROOT
HETATM    1 CL1  UNL     1     -40.294  15.762  50.384  1.00  0.00    -0.251 Cl
HETATM    2  O1  UNL     1     -40.000  11.658  47.718  1.00  0.00     0.000 OA
HETATM    3  O2  UNL     1     -41.195  11.455  48.669  1.00  0.00     0.000 OA
HETATM    4  N1  UNL     1     -41.098  12.693  49.307  1.00  0.00     0.000 N 
HETATM    5  N2  UNL     1     -39.661  12.937  48.163  1.00  0.00     0.000 N 
HETATM    6  C1  UNL     1     -40.197  13.869  49.189  1.00  0.00     0.022 A 
HETATM    7  C2  UNL     1     -39.676  13.643  48.591  1.00  0.00     0.012 A 
HETATM    8  C3  UNL     1     -40.830  13.448  49.509  1.00  0.00     0.022 A 
HETATM    9  C4  UNL     1     -39.096  14.194  48.393  1.00  0.00     0.010 A 
HETATM   10  C5  UNL     1     -40.161  12.284  48.229  1.00  0.00     0.001 A 
HETATM   11  C6  UNL     1     -40.003  14.656  49.475  1.00  0.00     0.033 A 
HETATM   12  C7  UNL     1     -41.312  13.783  50.136  1.00  0.00     0.027 A 
HETATM   13  C8  UNL     1     -40.801  12.176  48.738  1.00  0.00     0.002 A 
HETATM   14  C9  UNL     1     -40.473  15.008  50.103  1.00  0.00     0.052 A 
HETATM   15  C10 UNL     1     -41.132  14.568  50.435  1.00  0.00     0.052 A 
HETATM   16  C11 UNL     1     -38.547  14.022  47.801  1.00  0.00     0.003 A 
HETATM   17  C12 UNL     1     -39.063  14.919  48.788  1.00  0.00     0.010 A 
HETATM   18  C13 UNL     1     -37.966  14.574  47.604  1.00  0.00     0.002 A 
HETATM   19  C14 UNL     1     -38.482  15.470  48.590  1.00  0.00     0.002 A 
HETATM   20  C15 UNL     1     -37.934  15.298  47.999  1.00  0.00     0.002 A 
ENDROOT
TORSDOF 24
ENDMDL
