MODEL 1
REMARK VINA RESULT:     640.3      0.000      0.000
REMARK WARNING: 32 MAX_TORS EXCEEDED!!!
REMARK  54 active torsions:
REMARK  status: ('A' for Active; 'I' for Inactive)
REMARK    1  A    between atoms: F1_1  and  C13_20 
REMARK    2  A    between atoms: O1_2  and  O2_3 
REMARK    3  A    between atoms: O1_2  and  C12_19 
REMARK    4  A    between atoms: O1_2  and  C15_22 
REMARK    5  A    between atoms: O1_2  and  C21_28 
REMARK    6  A    between atoms: O3_4  and  C8_15 
REMARK    7  A    between atoms: O3_4  and  C17_24 
REMARK    8  A    between atoms: O3_4  and  C18_25 
REMARK    9  A    between atoms: O4_5  and  C8_15 
REMARK   10  A    between atoms: O4_5  and  C12_19 
REMARK   11  A    between atoms: O4_5  and  C21_28 
REMARK   12  A    between atoms: O5_6  and  C23_30 
REMARK   13  A    between atoms: O6_7  and  C20_27 
REMARK   14  A    between atoms: C1_8  and  C5_12 
REMARK   15  A    between atoms: C1_8  and  C7_14 
REMARK   16  A    between atoms: C1_8  and  C9_16 
REMARK   17  A    between atoms: C2_9  and  C7_14 
REMARK   18  A    between atoms: C2_9  and  C9_16 
REMARK   19  A    between atoms: C3_10  and  C6_13 
REMARK   20  A    between atoms: C3_10  and  C8_15 
REMARK   21  A    between atoms: C3_10  and  C9_16 
REMARK   22  A    between atoms: C3_10  and  C14_21 
REMARK   23  A    between atoms: C3_10  and  C18_25 
REMARK   24  A    between atoms: C4_11  and  C6_13 
REMARK   25  A    between atoms: C4_11  and  C8_15 
REMARK   26  A    between atoms: C4_11  and  C12_19 
REMARK   27  A    between atoms: C4_11  and  C21_28 
REMARK   28  A    between atoms: C5_12  and  C8_15 
REMARK   29  A    between atoms: C5_12  and  C11_18 
REMARK   30  A    between atoms: C6_13  and  C7_14 
REMARK   31  A    between atoms: C7_14  and  C15_22 
REMARK   32  A    between atoms: C8_15  and  C9_16 
REMARK   33  A    between atoms: C8_15  and  C12_19 
REMARK   34  A    between atoms: C8_15  and  C15_22 
REMARK   35  A    between atoms: C9_16  and  C10_17 
REMARK   36  A    between atoms: C9_16  and  C12_19 
REMARK   37  A    between atoms: C9_16  and  C18_25 
REMARK   38  A    between atoms: C10_17  and  C14_21 
REMARK   39  A    between atoms: C11_18  and  C13_20 
REMARK   40  A    between atoms: C12_19  and  C15_22 
REMARK   41  A    between atoms: C12_19  and  C21_28 
REMARK   42  A    between atoms: C13_20  and  C14_21 
REMARK   43  A    between atoms: C13_20  and  C17_24 
REMARK   44  A    between atoms: C13_20  and  C24_31 
REMARK   45  A    between atoms: C14_21  and  C20_27 
REMARK   46  A    between atoms: C15_22  and  C16_23 
REMARK   47  A    between atoms: C15_22  and  C23_30 
REMARK   48  A    between atoms: C16_23  and  C21_28 
REMARK   49  A    between atoms: C17_24  and  C18_25 
REMARK   50  A    between atoms: C17_24  and  C24_31 
REMARK   51  A    between atoms: C19_26  and  C20_27 
REMARK   52  A    between atoms: C20_27  and  C24_31 
REMARK   53  A    between atoms: C21_28  and  C23_30 
REMARK   54  A    between atoms: C22_29  and  C23_30 
ROOT
HETATM    1  F1  UNL     1     -40.729  12.213  50.410  1.00  0.00    -0.482 F 
HETATM    2  O1  UNL     1     -36.479  14.701  49.297  1.00  0.00     0.000 OA
HETATM    3  O2  UNL     1     -36.971  15.073  50.465  1.00  0.00     0.000 OA
HETATM    4  O3  UNL     1     -38.194  12.294  47.534  1.00  0.00     0.000 OA
HETATM    5  O4  UNL     1     -36.628  13.871  48.165  1.00  0.00     0.000 OA
HETATM    6  O5  UNL     1     -35.377  14.931  48.355  1.00  0.00     0.000 OA
HETATM    7  O6  UNL     1     -41.292  10.276  48.024  1.00  0.00     0.000 OA
HETATM    8  C1  UNL     1     -37.656  13.701  49.114  1.00  0.00     0.009 A 
HETATM    9  C2  UNL     1     -38.272  13.577  49.649  1.00  0.00     0.019 A 
HETATM   10  C3  UNL     1     -38.861  13.026  49.479  1.00  0.00     0.033 A 
HETATM   11  C4  UNL     1     -37.160  14.273  49.429  1.00  0.00     0.003 A 
HETATM   12  C5  UNL     1     -38.835  12.599  48.774  1.00  0.00     0.032 A 
HETATM   13  C6  UNL     1     -38.151  14.075  50.290  1.00  0.00     0.006 A 
HETATM   14  C7  UNL     1     -37.466  14.503  50.154  1.00  0.00     0.003 A 
HETATM   15  C8  UNL     1     -37.630  13.273  48.409  1.00  0.00     0.009 A 
HETATM   16  C9  UNL     1     -38.220  12.721  48.239  1.00  0.00     0.013 A 
HETATM   17  C10 UNL     1     -39.444  12.021  48.586  1.00  0.00     0.036 A 
HETATM   18  C11 UNL     1     -39.498  12.907  50.045  1.00  0.00     0.071 A 
HETATM   19  C12 UNL     1     -37.040  13.824  48.579  1.00  0.00     0.003 A 
HETATM   20  C13 UNL     1     -40.088  11.888  49.139  1.00  0.00     0.051 A 
HETATM   21  C14 UNL     1     -40.115  12.334  49.873  1.00  0.00     0.073 A 
HETATM   22  C15 UNL     1     -36.581  14.337  48.845  1.00  0.00     0.001 A 
HETATM   23  C16 UNL     1     -36.362  15.194  49.936  1.00  0.00     0.000 A 
HETATM   24  C17 UNL     1     -39.399  11.567  47.816  1.00  0.00     0.025 A 
HETATM   25  C18 UNL     1     -38.826  12.149  48.055  1.00  0.00     0.014 A 
HETATM   26  C19 UNL     1     -40.032  10.966  47.619  1.00  0.00     0.013 A 
HETATM   27  C20 UNL     1     -40.731  11.292  48.961  1.00  0.00     0.043 A 
HETATM   28  C21 UNL     1     -35.956  14.867  48.939  1.00  0.00     0.000 A 
HETATM   29  C22 UNL     1     -36.037  15.759  50.442  1.00  0.00     0.000 A 
HETATM   30  C23 UNL     1     -35.676  15.486  49.584  1.00  0.00     0.000 A 
HETATM   31  C24 UNL     1     -40.703  10.828  48.196  1.00  0.00     0.025 A 
ENDROOT
TORSDOF 54
ENDMDL
