MODEL 1
REMARK VINA RESULT:       2.4      0.000      0.000
REMARK  0 active torsions:
REMARK  status: ('A' for Active; 'I' for Inactive)
ROOT
HETATM    1  S1  UNL     1     -41.312  15.770  49.849  1.00  0.00    -0.089 SA
HETATM    2  N1  UNL     1     -39.231  15.817  50.509  1.00  0.00    -0.272 NA
HETATM    3  C1  UNL     1     -39.895  15.838  50.019  1.00  0.00     0.180 A 
HETATM    4  C2  UNL     1     -40.649  15.749  50.340  1.00  0.00     0.180 A 
ENDROOT
TORSDOF 0
ENDMDL
MODEL 2
REMARK VINA RESULT:       3.6      1.575      1.679
REMARK  0 active torsions:
REMARK  status: ('A' for Active; 'I' for Inactive)
ROOT
HETATM    1  S1  UNL     1     -38.898  15.774  50.504  1.00  0.00    -0.089 SA
HETATM    2  N1  UNL     1     -41.042  15.838  50.100  1.00  0.00    -0.272 NA
HETATM    3  C1  UNL     1     -40.327  15.778  50.507  1.00  0.00     0.180 A 
HETATM    4  C2  UNL     1     -39.613  15.834  50.098  1.00  0.00     0.180 A 
ENDROOT
TORSDOF 0
ENDMDL
MODEL 3
REMARK VINA RESULT:       5.2      1.744      1.802
REMARK  0 active torsions:
REMARK  status: ('A' for Active; 'I' for Inactive)
ROOT
HETATM    1  S1  UNL     1     -41.299  15.835  50.525  1.00  0.00    -0.089 SA
HETATM    2  N1  UNL     1     -41.256  14.640  48.699  1.00  0.00    -0.272 NA
HETATM    3  C1  UNL     1     -41.328  15.287  49.206  1.00  0.00     0.180 A 
HETATM    4  C2  UNL     1     -41.227  15.188  50.018  1.00  0.00     0.180 A 
ENDROOT
TORSDOF 0
ENDMDL
