MODEL 1
REMARK VINA RESULT:      85.9      0.000      0.000
REMARK WARNING: 32 MAX_TORS EXCEEDED!!!
REMARK  37 active torsions:
REMARK  status: ('A' for Active; 'I' for Inactive)
REMARK    1  A    between atoms: O1_1  and  C1_6 
REMARK    2  A    between atoms: O1_1  and  C2_7 
REMARK    3  A    between atoms: O1_1  and  C6_11 
REMARK    4  A    between atoms: O2_2  and  C1_6 
REMARK    5  A    between atoms: O2_2  and  C3_8 
REMARK    6  A    between atoms: O2_2  and  C9_14 
REMARK    7  A    between atoms: O2_2  and  C12_17 
REMARK    8  A    between atoms: O3_3  and  N2_5 
REMARK    9  A    between atoms: N1_4  and  N2_5 
REMARK   10  A    between atoms: N1_4  and  C1_6 
REMARK   11  A    between atoms: N2_5  and  C7_12 
REMARK   12  A    between atoms: N2_5  and  C1_6 
REMARK   13  A    between atoms: C1_6  and  C4_9 
REMARK   14  A    between atoms: C1_6  and  C5_10 
REMARK   15  A    between atoms: C1_6  and  C7_12 
REMARK   16  A    between atoms: C2_7  and  C4_9 
REMARK   17  A    between atoms: C2_7  and  C5_10 
REMARK   18  A    between atoms: C2_7  and  C8_13 
REMARK   19  A    between atoms: C2_7  and  C9_14 
REMARK   20  A    between atoms: C2_7  and  C11_16 
REMARK   21  A    between atoms: C3_8  and  C4_9 
REMARK   22  A    between atoms: C3_8  and  C5_10 
REMARK   23  A    between atoms: C3_8  and  C6_11 
REMARK   24  A    between atoms: C3_8  and  C13_18 
REMARK   25  A    between atoms: C4_9  and  C5_10 
REMARK   26  A    between atoms: C4_9  and  C6_11 
REMARK   27  A    between atoms: C4_9  and  C7_12 
REMARK   28  A    between atoms: C5_10  and  C7_12 
REMARK   29  A    between atoms: C5_10  and  C9_14 
REMARK   30  A    between atoms: C6_11  and  C8_13 
REMARK   31  A    between atoms: C7_12  and  C10_15 
REMARK   32  A    between atoms: C8_13  and  C9_14 
REMARK   33  A    between atoms: C8_13  and  C12_17 
REMARK   34  A    between atoms: C9_14  and  C11_16 
REMARK   35  A    between atoms: C9_14  and  C13_18 
REMARK   36  A    between atoms: C11_16  and  C12_17 
REMARK   37  A    between atoms: C12_17  and  C13_18 
ROOT
HETATM    1  O1  UNL     1     -40.492  15.355  50.528  1.00  0.00     0.000 OA
HETATM    2  O3  UNL     1     -38.234  15.819  48.838  1.00  0.00     0.000 OA
HETATM    3  N1  UNL     1     -39.363  15.587  49.682  1.00  0.00     0.000 N 
HETATM    4  C4  UNL     1     -40.158  15.387  49.773  1.00  0.00     0.000 A 
HETATM    5  C7  UNL     1     -39.030  15.619  48.929  1.00  0.00     0.000 A 
HETATM    6  C10 UNL     1     -38.901  15.755  50.346  1.00  0.00     0.000 A 
ENDROOT
BRANCH   1   7
HETATM    7  C1  UNL     1     -40.620  15.220  49.111  1.00  0.00     0.000 A 
HETATM    8  C2  UNL     1     -40.780  14.578  49.603  1.00  0.00     0.000 A 
HETATM    9  C6  UNL     1     -40.706  14.656  50.421  1.00  0.00     0.000 A 
HETATM   10  C3  UNL     1     -40.855  14.499  48.785  1.00  0.00     0.000 A 
HETATM   11  C8  UNL     1     -41.015  13.856  49.277  1.00  0.00     0.000 A 
HETATM   12  C9  UNL     1     -40.929  14.421  47.967  1.00  0.00     0.000 A 
HETATM   13  C11 UNL     1     -41.249  13.136  48.951  1.00  0.00     0.000 A 
HETATM   14  C12 UNL     1     -41.163  13.700  47.641  1.00  0.00     0.000 A 
HETATM   15  C13 UNL     1     -41.323  13.058  48.133  1.00  0.00     0.000 A 
BRANCH   8  16
HETATM   16  C5  UNL     1     -40.570  15.546  48.355  1.00  0.00     0.000 A 
HETATM   17  O2  UNL     1     -41.324  15.833  48.178  1.00  0.00     0.000 OA
HETATM   18  N2  UNL     1     -39.921  15.786  47.905  1.00  0.00     0.000 N 
ENDBRANCH   8  16
ENDBRANCH   1   7
TORSDOF 37
ENDMDL
