MODEL 1
REMARK VINA RESULT:      75.6      0.000      0.000
REMARK  13 active torsions:
REMARK  status: ('A' for Active; 'I' for Inactive)
REMARK    1  A    between atoms: O1_1  and  N2_4 
REMARK    2  A    between atoms: O2_2  and  C2_10 
REMARK    3  A    between atoms: N1_3  and  N2_4 
REMARK    4  A    between atoms: N1_3  and  N3_5 
REMARK    5  A    between atoms: N1_3  and  C2_10 
REMARK    6  A    between atoms: N3_5  and  C6_14 
REMARK    7  A    between atoms: N4_6  and  C2_10 
REMARK    8  A    between atoms: N5_7  and  C1_9 
REMARK    9  A    between atoms: N6_8  and  C2_10 
REMARK   10  A    between atoms: C1_9  and  C6_14 
REMARK   11  A    between atoms: C2_10  and  C6_14 
REMARK   12  A    between atoms: C3_11  and  C4_12 
REMARK   13  A    between atoms: C3_11  and  C5_13 
ROOT
HETATM    1  O1  UNL     1     -41.189  11.852  49.309  1.00  0.00     0.000 OA
HETATM    2  N1  UNL     1     -41.203  13.265  49.511  1.00  0.00     0.000 N 
HETATM    3  N2  UNL     1     -41.284  12.732  48.189  1.00  0.00     0.000 N 
HETATM    4  N3  UNL     1     -41.149  14.120  50.527  1.00  0.00     0.000 N 
HETATM    5  N4  UNL     1     -41.298  14.147  48.390  1.00  0.00     0.000 N 
HETATM    6  N5  UNL     1     -41.320  13.497  47.883  1.00  0.00     0.000 N 
HETATM    7  C1  UNL     1     -41.239  14.031  49.205  1.00  0.00     0.032 A 
HETATM    8  C2  UNL     1     -41.206  14.556  49.834  1.00  0.00     0.075 A 
HETATM    9  C3  UNL     1     -41.225  12.617  49.003  1.00  0.00     0.004 A 
HETATM   10  C4  UNL     1     -41.148  13.324  50.328  1.00  0.00     0.019 A 
HETATM   11  C5  UNL     1     -41.306  12.083  47.680  1.00  0.00     0.000 A 
ENDROOT
BRANCH   7  12
HETATM   12  C6  UNL     1     -41.226  15.379  49.780  1.00  0.00     0.089 A 
HETATM   13  O2  UNL     1     -41.183  15.742  49.041  1.00  0.00     0.000 OA
HETATM   14  N6  UNL     1     -41.243  15.838  50.466  1.00  0.00    -0.220 NA
ENDBRANCH   7  12
TORSDOF 13
ENDMDL
