MODEL 1
REMARK VINA RESULT:     115.7      0.000      0.000
REMARK WARNING: 32 MAX_TORS EXCEEDED!!!
REMARK  54 active torsions:
REMARK  status: ('A' for Active; 'I' for Inactive)
REMARK    1  A    between atoms: O1_1  and  C17_19 
REMARK    2  A    between atoms: N1_2  and  C1_3 
REMARK    3  A    between atoms: N1_2  and  C4_6 
REMARK    4  A    between atoms: N1_2  and  C7_9 
REMARK    5  A    between atoms: N1_2  and  C12_14 
REMARK    6  A    between atoms: C1_3  and  C8_10 
REMARK    7  A    between atoms: C1_3  and  C9_11 
REMARK    8  A    between atoms: C1_3  and  C11_13 
REMARK    9  A    between atoms: C1_3  and  C14_16 
REMARK   10  A    between atoms: C2_4  and  C8_10 
REMARK   11  A    between atoms: C2_4  and  C9_11 
REMARK   12  A    between atoms: C2_4  and  C10_12 
REMARK   13  A    between atoms: C2_4  and  C12_14 
REMARK   14  A    between atoms: C2_4  and  C14_16 
REMARK   15  A    between atoms: C3_5  and  C4_6 
REMARK   16  A    between atoms: C3_5  and  C6_8 
REMARK   17  A    between atoms: C3_5  and  C7_9 
REMARK   18  A    between atoms: C3_5  and  C12_14 
REMARK   19  A    between atoms: C4_6  and  C9_11 
REMARK   20  A    between atoms: C4_6  and  C5_7 
REMARK   21  A    between atoms: C4_6  and  C6_8 
REMARK   22  A    between atoms: C4_6  and  C7_9 
REMARK   23  A    between atoms: C4_6  and  C8_10 
REMARK   24  A    between atoms: C4_6  and  C12_14 
REMARK   25  A    between atoms: C4_6  and  C13_15 
REMARK   26  A    between atoms: C4_6  and  C14_16 
REMARK   27  A    between atoms: C5_7  and  C6_8 
REMARK   28  A    between atoms: C5_7  and  C7_9 
REMARK   29  A    between atoms: C5_7  and  C9_11 
REMARK   30  A    between atoms: C5_7  and  C11_13 
REMARK   31  A    between atoms: C5_7  and  C13_15 
REMARK   32  A    between atoms: C6_8  and  C10_12 
REMARK   33  A    between atoms: C7_9  and  C8_10 
REMARK   34  A    between atoms: C7_9  and  C9_11 
REMARK   35  A    between atoms: C7_9  and  C14_16 
REMARK   36  A    between atoms: C7_9  and  C16_18 
REMARK   37  A    between atoms: C7_9  and  C17_19 
REMARK   38  A    between atoms: C8_10  and  C12_14 
REMARK   39  A    between atoms: C8_10  and  C9_11 
REMARK   40  A    between atoms: C8_10  and  C14_16 
REMARK   41  A    between atoms: C8_10  and  C15_17 
REMARK   42  A    between atoms: C9_11  and  C12_14 
REMARK   43  A    between atoms: C9_11  and  C13_15 
REMARK   44  A    between atoms: C9_11  and  C14_16 
REMARK   45  A    between atoms: C9_11  and  C15_17 
REMARK   46  A    between atoms: C10_12  and  C11_13 
REMARK   47  A    between atoms: C12_14  and  C13_15 
REMARK   48  A    between atoms: C12_14  and  C14_16 
REMARK   49  A    between atoms: C12_14  and  C16_18 
REMARK   50  A    between atoms: C13_15  and  C15_17 
REMARK   51  A    between atoms: C13_15  and  C17_19 
REMARK   52  A    between atoms: C14_16  and  C15_17 
REMARK   53  A    between atoms: C15_17  and  C16_18 
REMARK   54  A    between atoms: C16_18  and  C17_19 
ROOT
HETATM    1  O1  UNL     1     -40.515  11.676  49.170  1.00  0.00     0.000 OA
HETATM    2  N1  UNL     1     -41.201  14.571  48.265  1.00  0.00     0.000 N 
HETATM    3  C1  UNL     1     -40.911  14.442  49.273  1.00  0.00     0.000 A 
HETATM    4  C2  UNL     1     -41.110  15.123  48.921  1.00  0.00     0.000 A 
HETATM    5  C3  UNL     1     -41.315  15.127  48.156  1.00  0.00     0.000 A 
HETATM    6  C4  UNL     1     -40.965  14.285  48.984  1.00  0.00     0.000 A 
HETATM    7  C5  UNL     1     -40.695  14.425  50.070  1.00  0.00     0.000 A 
HETATM    8  C6  UNL     1     -41.106  15.833  49.341  1.00  0.00     0.000 A 
HETATM    9  C7  UNL     1     -40.918  13.765  48.861  1.00  0.00     0.000 A 
HETATM   10  C8  UNL     1     -41.322  14.451  47.744  1.00  0.00     0.000 A 
HETATM   11  C9  UNL     1     -41.073  14.222  48.545  1.00  0.00     0.000 A 
HETATM   12  C10 UNL     1     -40.686  15.126  50.504  1.00  0.00     0.000 A 
HETATM   13  C11 UNL     1     -40.892  15.835  50.138  1.00  0.00     0.000 A 
HETATM   14  C12 UNL     1     -41.124  13.770  48.096  1.00  0.00     0.000 A 
HETATM   15  C13 UNL     1     -40.709  13.062  49.240  1.00  0.00     0.000 A 
HETATM   16  C14 UNL     1     -41.257  14.141  47.811  1.00  0.00     0.000 A 
HETATM   17  C15 UNL     1     -41.135  13.072  47.657  1.00  0.00     0.000 A 
HETATM   18  C16 UNL     1     -40.715  12.356  48.815  1.00  0.00     0.000 A 
HETATM   19  C17 UNL     1     -40.929  12.361  48.018  1.00  0.00     0.000 A 
ENDROOT
TORSDOF 54
ENDMDL
