MODEL 1
REMARK VINA RESULT:      23.3      0.000      0.000
REMARK  2 active torsions:
REMARK  status: ('A' for Active; 'I' for Inactive)
REMARK    1  A    between atoms: O1_1  and  C4_8 
REMARK    2  A    between atoms: C1_5  and  C4_8 
ROOT
HETATM    1  O1  UNL     1     -38.410  15.654  49.033  1.00  0.00     0.000 OA
HETATM    2  O2  UNL     1     -41.327  15.604  48.457  1.00  0.00    -0.308 OA
HETATM    3  O3  UNL     1     -41.260  15.786  49.872  1.00  0.00    -0.308 OA
HETATM    4  N1  UNL     1     -37.519  15.824  50.411  1.00  0.00    -0.292 NA
HETATM    5  C1  UNL     1     -39.612  15.763  49.797  1.00  0.00     0.148 A 
HETATM    6  C2  UNL     1     -40.057  15.677  49.109  1.00  0.00     0.223 A 
HETATM    7  C3  UNL     1     -38.789  15.751  49.760  1.00  0.00     0.158 A 
HETATM    8  C4  UNL     1     -38.342  15.836  50.449  1.00  0.00     0.135 A 
HETATM    9  C5  UNL     1     -40.882  15.689  49.146  1.00  0.00     0.244 A 
ENDROOT
TORSDOF 2
ENDMDL
