MODEL 1
REMARK VINA RESULT:     484.3      0.000      0.000
REMARK WARNING: 32 MAX_TORS EXCEEDED!!!
REMARK  41 active torsions:
REMARK  status: ('A' for Active; 'I' for Inactive)
REMARK    1  A    between atoms: O1_1  and  C6_11 
REMARK    2  A    between atoms: O1_1  and  C12_17 
REMARK    3  A    between atoms: O2_2  and  C6_11 
REMARK    4  A    between atoms: O2_2  and  C16_21 
REMARK    5  A    between atoms: O2_2  and  C17_22 
REMARK    6  A    between atoms: O3_3  and  C19_24 
REMARK    7  A    between atoms: O5_5  and  C20_25 
REMARK    8  A    between atoms: C1_6  and  C4_9 
REMARK    9  A    between atoms: C1_6  and  C8_13 
REMARK   10  A    between atoms: C1_6  and  C15_20 
REMARK   11  A    between atoms: C2_7  and  C8_13 
REMARK   12  A    between atoms: C2_7  and  C10_15 
REMARK   13  A    between atoms: C3_8  and  C6_11 
REMARK   14  A    between atoms: C3_8  and  C7_12 
REMARK   15  A    between atoms: C3_8  and  C8_13 
REMARK   16  A    between atoms: C3_8  and  C16_21 
REMARK   17  A    between atoms: C4_9  and  C6_11 
REMARK   18  A    between atoms: C4_9  and  C11_16 
REMARK   19  A    between atoms: C5_10  and  C6_11 
REMARK   20  A    between atoms: C5_10  and  C7_12 
REMARK   21  A    between atoms: C5_10  and  C12_17 
REMARK   22  A    between atoms: C5_10  and  C19_24 
REMARK   23  A    between atoms: C6_11  and  C8_13 
REMARK   24  A    between atoms: C6_11  and  C12_17 
REMARK   25  A    between atoms: C7_12  and  C10_15 
REMARK   26  A    between atoms: C8_13  and  C9_14 
REMARK   27  A    between atoms: C8_13  and  C12_17 
REMARK   28  A    between atoms: C8_13  and  C16_21 
REMARK   29  A    between atoms: C9_14  and  C13_18 
REMARK   30  A    between atoms: C10_15  and  C15_20 
REMARK   31  A    between atoms: C10_15  and  C19_24 
REMARK   32  A    between atoms: C11_16  and  C14_19 
REMARK   33  A    between atoms: C12_17  and  C15_20 
REMARK   34  A    between atoms: C13_18  and  C14_19 
REMARK   35  A    between atoms: C13_18  and  C18_23 
REMARK   36  A    between atoms: C14_19  and  C17_22 
REMARK   37  A    between atoms: C14_19  and  C21_26 
REMARK   38  A    between atoms: C16_21  and  C17_22 
REMARK   39  A    between atoms: C17_22  and  C21_26 
REMARK   40  A    between atoms: C18_23  and  C20_25 
REMARK   41  A    between atoms: C20_25  and  C21_26 
ROOT
HETATM    1  O1  UNL     1     -39.523  14.708  48.424  1.00  0.00     0.000 OA
HETATM    2  O2  UNL     1     -37.399  13.204  47.563  1.00  0.00     0.000 OA
HETATM    3  O3  UNL     1     -40.217  15.406  48.465  1.00  0.00     0.000 OA
HETATM    4  O4  UNL     1     -41.326  15.539  49.680  1.00  0.00    -0.363 OA
HETATM    5  O5  UNL     1     -35.355  10.234  48.518  1.00  0.00     0.000 OA
HETATM    6  C1  UNL     1     -39.023  13.773  48.904  1.00  0.00     0.021 A 
HETATM    7  C2  UNL     1     -38.951  13.197  49.490  1.00  0.00     0.011 A 
HETATM    8  C3  UNL     1     -38.362  12.624  49.434  1.00  0.00     0.003 A 
HETATM    9  C4  UNL     1     -37.844  12.625  48.791  1.00  0.00     0.003 A 
HETATM   10  C5  UNL     1     -39.651  14.261  49.107  1.00  0.00     0.039 A 
HETATM   11  C6  UNL     1     -38.506  13.776  48.261  1.00  0.00     0.008 A 
HETATM   12  C7  UNL     1     -39.535  13.335  50.050  1.00  0.00     0.010 A 
HETATM   13  C8  UNL     1     -37.916  13.201  48.205  1.00  0.00     0.004 A 
HETATM   14  C9  UNL     1     -37.226  12.033  48.722  1.00  0.00     0.000 A 
HETATM   15  C10 UNL     1     -39.965  13.991  49.813  1.00  0.00     0.044 A 
HETATM   16  C11 UNL     1     -38.296  12.029  50.051  1.00  0.00     0.001 A 
HETATM   17  C12 UNL     1     -39.096  14.349  48.317  1.00  0.00     0.024 C 
HETATM   18  C13 UNL     1     -37.684  11.428  49.998  1.00  0.00     0.000 A 
HETATM   19  C14 UNL     1     -37.145  11.431  49.329  1.00  0.00     0.000 A 
HETATM   20  C15 UNL     1     -40.211  14.867  49.090  1.00  0.00     0.081 A 
HETATM   21  C16 UNL     1     -37.303  12.612  48.138  1.00  0.00     0.000 A 
HETATM   22  C17 UNL     1     -36.673  12.051  48.017  1.00  0.00     0.000 A 
HETATM   23  C18 UNL     1     -36.507  10.805  49.274  1.00  0.00     0.000 A 
HETATM   24  C19 UNL     1     -40.765  14.933  49.697  1.00  0.00     0.115 A 
HETATM   25  C20 UNL     1     -36.029  11.435  47.944  1.00  0.00     0.000 A 
HETATM   26  C21 UNL     1     -35.946  10.807  48.577  1.00  0.00     0.000 A 
ENDROOT
TORSDOF 41
ENDMDL
