MODEL 1
REMARK VINA RESULT:     228.7      0.000      0.000
REMARK  14 active torsions:
REMARK  status: ('A' for Active; 'I' for Inactive)
REMARK    1  A    between atoms: O2_2  and  C4_7 
REMARK    2  A    between atoms: C2_5  and  C4_7 
REMARK    3  A    between atoms: C2_5  and  C5_8 
REMARK    4  A    between atoms: C4_7  and  C10_13 
REMARK    5  A    between atoms: C5_8  and  C6_9 
REMARK    6  A    between atoms: C7_10  and  C13_16 
REMARK    7  A    between atoms: C8_11  and  C10_13 
REMARK    8  A    between atoms: C8_11  and  C12_15 
REMARK    9  A    between atoms: C9_12  and  C11_14 
REMARK   10  A    between atoms: C10_13  and  C11_14 
REMARK   11  A    between atoms: C10_13  and  C13_16 
REMARK   12  A    between atoms: C11_14  and  C12_15 
REMARK   13  A    between atoms: C11_14  and  C14_17 
REMARK   14  A    between atoms: C12_15  and  C13_16 
ROOT
HETATM    1  O1  UNL     1     -39.390  13.659  49.184  1.00  0.00     0.000 OA
HETATM    2  O2  UNL     1     -38.109  13.781  50.217  1.00  0.00     0.000 OA
HETATM    3  N1  UNL     1     -36.836  12.740  50.080  1.00  0.00     0.000 N 
HETATM    4  C1  UNL     1     -38.113  13.200  49.632  1.00  0.00     0.000 A 
HETATM    5  C2  UNL     1     -37.477  12.679  49.563  1.00  0.00     0.000 A 
HETATM    6  C3  UNL     1     -36.199  12.219  50.011  1.00  0.00     0.000 A 
HETATM    7  C4  UNL     1     -38.753  13.139  49.116  1.00  0.00     0.000 A 
HETATM    8  C5  UNL     1     -36.204  11.637  49.426  1.00  0.00     0.000 A 
HETATM    9  C6  UNL     1     -35.559  12.280  50.527  1.00  0.00     0.000 A 
HETATM   10  C7  UNL     1     -40.030  13.598  48.668  1.00  0.00     0.003 A 
HETATM   11  C8  UNL     1     -40.666  14.119  48.737  1.00  0.00     0.006 A 
HETATM   12  C9  UNL     1     -40.662  14.701  49.321  1.00  0.00     0.015 A 
HETATM   13  C10 UNL     1     -40.035  13.017  48.084  1.00  0.00     0.001 A 
HETATM   14  C11 UNL     1     -41.307  14.058  48.221  1.00  0.00     0.006 A 
HETATM   15  C12 UNL     1     -40.675  12.955  47.567  1.00  0.00     0.001 A 
HETATM   16  C13 UNL     1     -41.312  13.476  47.635  1.00  0.00     0.001 A 
HETATM   17  C14 UNL     1     -41.298  15.221  49.390  1.00  0.00     0.018 A 
HETATM   18  C15 UNL     1     -41.294  15.803  49.975  1.00  0.00    -0.053 A 
ENDROOT
TORSDOF 14
ENDMDL
