MODEL 1
REMARK VINA RESULT:     222.9      0.000      0.000
REMARK  22 active torsions:
REMARK  status: ('A' for Active; 'I' for Inactive)
REMARK    1  A    between atoms: S1_1  and  C13_17 
REMARK    2  A    between atoms: O2_3  and  C3_7 
REMARK    3  A    between atoms: O3_4  and  C11_15 
REMARK    4  A    between atoms: C2_6  and  C5_9 
REMARK    5  A    between atoms: C2_6  and  C9_13 
REMARK    6  A    between atoms: C3_7  and  C4_8 
REMARK    7  A    between atoms: C3_7  and  C8_12 
REMARK    8  A    between atoms: C3_7  and  C9_13 
REMARK    9  A    between atoms: C4_8  and  C5_9 
REMARK   10  A    between atoms: C4_8  and  C6_10 
REMARK   11  A    between atoms: C4_8  and  C7_11 
REMARK   12  A    between atoms: C5_9  and  C8_12 
REMARK   13  A    between atoms: C5_9  and  C11_15 
REMARK   14  A    between atoms: C6_10  and  C9_13 
REMARK   15  A    between atoms: C7_11  and  C8_12 
REMARK   16  A    between atoms: C7_11  and  C10_14 
REMARK   17  A    between atoms: C8_12  and  C10_14 
REMARK   18  A    between atoms: C8_12  and  C11_15 
REMARK   19  A    between atoms: C8_12  and  C12_16 
REMARK   20  A    between atoms: C10_14  and  C12_16 
REMARK   21  A    between atoms: C12_16  and  C14_18 
REMARK   22  A    between atoms: C13_17  and  C14_18 
ROOT
HETATM    1  S1  UNL     1     -40.428  15.832  49.425  1.00  0.00    -0.221 SA
HETATM    2  O1  UNL     1     -36.767  11.207  50.318  1.00  0.00    -0.365 OA
HETATM    3  O2  UNL     1     -36.657  12.627  50.438  1.00  0.00     0.000 OA
HETATM    4  O3  UNL     1     -38.789  15.710  49.942  1.00  0.00     0.000 OA
HETATM    5  C1  UNL     1     -37.887  12.039  50.009  1.00  0.00     0.082 A 
HETATM    6  C2  UNL     1     -38.224  12.789  49.947  1.00  0.00     0.043 A 
HETATM    7  C3  UNL     1     -37.778  13.459  50.130  1.00  0.00     0.043 A 
HETATM    8  C4  UNL     1     -39.007  12.871  49.701  1.00  0.00     0.031 A 
HETATM    9  C5  UNL     1     -38.898  14.290  49.822  1.00  0.00     0.023 A 
HETATM   10  C6  UNL     1     -38.333  11.370  49.826  1.00  0.00     0.050 A 
HETATM   11  C7  UNL     1     -38.115  14.209  50.067  1.00  0.00     0.019 A 
HETATM   12  C8  UNL     1     -39.344  13.621  49.638  1.00  0.00     0.026 A 
HETATM   13  C9  UNL     1     -37.104  11.958  50.255  1.00  0.00     0.097 A 
HETATM   14  C10 UNL     1     -39.235  15.040  49.759  1.00  0.00     0.024 A 
HETATM   15  C11 UNL     1     -40.018  15.122  49.513  1.00  0.00     0.031 A 
HETATM   16  C12 UNL     1     -40.530  14.506  49.312  1.00  0.00     0.035 A 
HETATM   17  C13 UNL     1     -41.256  14.838  49.100  1.00  0.00     0.041 A 
HETATM   18  C14 UNL     1     -41.193  15.657  49.170  1.00  0.00     0.041 A 
ENDROOT
TORSDOF 22
ENDMDL
