MODEL 1
REMARK VINA RESULT:     126.6      0.000      0.000
REMARK  17 active torsions:
REMARK  status: ('A' for Active; 'I' for Inactive)
REMARK    1  A    between atoms: O3_3  and  C12_16 
REMARK    2  A    between atoms: N1_4  and  C3_7 
REMARK    3  A    between atoms: C2_6  and  C6_10 
REMARK    4  A    between atoms: C2_6  and  C7_11 
REMARK    5  A    between atoms: C2_6  and  C8_12 
REMARK    6  A    between atoms: C4_8  and  C6_10 
REMARK    7  A    between atoms: C5_9  and  C6_10 
REMARK    8  A    between atoms: C7_11  and  C10_14 
REMARK    9  A    between atoms: C7_11  and  C11_15 
REMARK   10  A    between atoms: C7_11  and  C12_16 
REMARK   11  A    between atoms: C8_12  and  C9_13 
REMARK   12  A    between atoms: C8_12  and  C10_14 
REMARK   13  A    between atoms: C8_12  and  C12_16 
REMARK   14  A    between atoms: C9_13  and  C11_15 
REMARK   15  A    between atoms: C9_13  and  C12_16 
REMARK   16  A    between atoms: C10_14  and  C11_15 
REMARK   17  A    between atoms: C11_15  and  C12_16 
ROOT
HETATM    1  O1  UNL     1     -41.181  13.505  47.702  1.00  0.00     0.000 OA
HETATM    2  O2  UNL     1     -41.168  10.535  47.535  1.00  0.00     0.000 OA
HETATM    3  O3  UNL     1     -41.211  11.065  50.343  1.00  0.00     0.000 OA
HETATM    4  N1  UNL     1     -41.203  14.581  48.952  1.00  0.00     0.000 N 
HETATM    5  C1  UNL     1     -41.214  15.119  49.578  1.00  0.00     0.000 A 
HETATM    6  C2  UNL     1     -41.202  13.770  49.105  1.00  0.00     0.000 A 
HETATM    7  C3  UNL     1     -41.191  13.232  48.480  1.00  0.00     0.000 A 
HETATM    8  C4  UNL     1     -41.225  15.657  50.203  1.00  0.00     0.000 A 
HETATM    9  C5  UNL     1     -41.208  15.744  49.040  1.00  0.00     0.000 A 
HETATM   10  C6  UNL     1     -41.220  14.493  50.115  1.00  0.00     0.000 A 
HETATM   11  C7  UNL     1     -41.191  12.421  48.633  1.00  0.00     0.000 A 
HETATM   12  C8  UNL     1     -41.201  12.149  49.411  1.00  0.00     0.000 A 
HETATM   13  C9  UNL     1     -41.180  11.884  48.008  1.00  0.00     0.000 A 
HETATM   14  C10 UNL     1     -41.179  11.072  48.161  1.00  0.00     0.000 A 
HETATM   15  C11 UNL     1     -41.201  11.337  49.564  1.00  0.00     0.000 A 
HETATM   16  C12 UNL     1     -41.190  10.800  48.939  1.00  0.00     0.000 A 
ENDROOT
TORSDOF 17
ENDMDL
