MODEL 1
REMARK VINA RESULT:     268.8      0.000      0.000
REMARK  13 active torsions:
REMARK  status: ('A' for Active; 'I' for Inactive)
REMARK    1  A    between atoms: O1_1  and  C5_9 
REMARK    2  A    between atoms: O2_2  and  C3_7 
REMARK    3  A    between atoms: C2_6  and  C3_7 
REMARK    4  A    between atoms: C2_6  and  C6_10 
REMARK    5  A    between atoms: C4_8  and  C7_11 
REMARK    6  A    between atoms: C4_8  and  C9_13 
REMARK    7  A    between atoms: C5_9  and  C6_10 
REMARK    8  A    between atoms: C5_9  and  C8_12 
REMARK    9  A    between atoms: C6_10  and  C7_11 
REMARK   10  A    between atoms: C6_10  and  C9_13 
REMARK   11  A    between atoms: C7_11  and  C8_12 
REMARK   12  A    between atoms: C7_11  and  C10_14 
REMARK   13  A    between atoms: C8_12  and  C9_13 
ROOT
HETATM    1  O1  UNL     1     -38.341  12.464  49.011  1.00  0.00     0.000 OA
HETATM    2  O2  UNL     1     -37.064  11.420  49.037  1.00  0.00     0.000 OA
HETATM    3  O3  UNL     1     -35.531  11.996  49.246  1.00  0.00    -0.354 OA
HETATM    4  O4  UNL     1     -39.872  11.889  48.803  1.00  0.00     0.000 OA
HETATM    5  C1  UNL     1     -36.935  12.230  49.129  1.00  0.00     0.145 A 
HETATM    6  C2  UNL     1     -37.574  12.752  49.115  1.00  0.00     0.055 A 
HETATM    7  C3  UNL     1     -36.170  12.518  49.233  1.00  0.00     0.145 A 
HETATM    8  C4  UNL     1     -38.980  12.986  48.998  1.00  0.00     0.004 A 
HETATM    9  C5  UNL     1     -39.745  12.698  48.894  1.00  0.00     0.000 A 
HETATM   10  C6  UNL     1     -38.851  13.796  49.089  1.00  0.00     0.004 A 
HETATM   11  C7  UNL     1     -40.384  13.220  48.880  1.00  0.00     0.000 A 
HETATM   12  C8  UNL     1     -39.490  14.318  49.076  1.00  0.00     0.000 A 
HETATM   13  C9  UNL     1     -40.257  14.030  48.971  1.00  0.00     0.000 A 
HETATM   14  C10 UNL     1     -40.638  11.600  48.698  1.00  0.00     0.000 A 
ENDROOT
TORSDOF 13
ENDMDL
