MODEL 1
REMARK VINA RESULT:     269.6      0.000      0.000
REMARK  24 active torsions:
REMARK  status: ('A' for Active; 'I' for Inactive)
REMARK    1  A    between atoms: CL1_1  and  O4_7 
REMARK    2  A    between atoms: CL1_1  and  C5_15 
REMARK    3  A    between atoms: S1_2  and  N1_8 
REMARK    4  A    between atoms: S1_2  and  C2_12 
REMARK    5  A    between atoms: S1_2  and  C7_17 
REMARK    6  A    between atoms: S2_3  and  C4_14 
REMARK    7  A    between atoms: O2_5  and  C4_14 
REMARK    8  A    between atoms: O3_6  and  C4_14 
REMARK    9  A    between atoms: O4_7  and  C3_13 
REMARK   10  A    between atoms: O4_7  and  C6_16 
REMARK   11  A    between atoms: N1_8  and  N2_9 
REMARK   12  A    between atoms: N2_9  and  C7_17 
REMARK   13  A    between atoms: N2_9  and  C1_11 
REMARK   14  A    between atoms: C1_11  and  C3_13 
REMARK   15  A    between atoms: C1_11  and  C5_15 
REMARK   16  A    between atoms: C1_11  and  C6_16 
REMARK   17  A    between atoms: C2_12  and  C3_13 
REMARK   18  A    between atoms: C2_12  and  C4_14 
REMARK   19  A    between atoms: C2_12  and  C6_16 
REMARK   20  A    between atoms: C3_13  and  C4_14 
REMARK   21  A    between atoms: C3_13  and  C5_15 
REMARK   22  A    between atoms: C4_14  and  C5_15 
REMARK   23  A    between atoms: C4_14  and  C6_16 
REMARK   24  A    between atoms: C5_15  and  C6_16 
ROOT
HETATM    1 CL1  UNL     1     -36.924  13.818  49.590  1.00  0.00    -0.230 Cl
HETATM    2  S2  UNL     1     -37.845  15.107  50.053  1.00  0.00    -0.096 SA
HETATM    3  O3  UNL     1     -38.581  15.429  50.236  1.00  0.00     0.000 OA
HETATM    4  O4  UNL     1     -37.108  14.785  49.869  1.00  0.00     0.000 OA
HETATM    5  N3  UNL     1     -37.489  15.838  50.197  1.00  0.00    -0.077 NA
HETATM    6  C3  UNL     1     -38.200  14.377  49.909  1.00  0.00     0.096 A 
HETATM    7  C6  UNL     1     -37.739  13.732  49.677  1.00  0.00     0.096 A 
ENDROOT
BRANCH   1   8
HETATM    8  C5  UNL     1     -38.096  13.002  49.533  1.00  0.00     0.090 A 
HETATM    9  C2  UNL     1     -38.912  12.929  49.442  1.00  0.00     0.081 A 
HETATM   10  N1  UNL     1     -39.270  12.148  49.480  1.00  0.00     0.000 N 
HETATM   11  C1  UNL     1     -39.374  13.602  49.317  1.00  0.00     0.083 A 
HETATM   12  C7  UNL     1     -40.119  12.067  49.385  1.00  0.00     0.055 A 
HETATM   13  S1  UNL     1     -40.226  13.539  49.220  1.00  0.00    -0.189 SA
HETATM   14  C4  UNL     1     -39.020  14.345  49.282  1.00  0.00     0.091 A 
HETATM   15  O2  UNL     1     -40.278  14.357  49.129  1.00  0.00     0.000 OA
HETATM   16  O1  UNL     1     -40.960  13.894  49.095  1.00  0.00     0.000 OA
HETATM   17  N2  UNL     1     -40.601  12.767  49.255  1.00  0.00     0.000 N 
ENDBRANCH   1   8
TORSDOF 24
ENDMDL
