MODEL 1
REMARK VINA RESULT:     148.7      0.000      0.000
REMARK  12 active torsions:
REMARK  status: ('A' for Active; 'I' for Inactive)
REMARK    1  A    between atoms: O1_1  and  C3_13 
REMARK    2  A    between atoms: O2_2  and  C4_14 
REMARK    3  A    between atoms: O3_3  and  C1_11 
REMARK    4  A    between atoms: O3_3  and  C5_15 
REMARK    5  A    between atoms: O4_4  and  C2_12 
REMARK    6  A    between atoms: O4_4  and  C6_16 
REMARK    7  A    between atoms: C1_11  and  C3_13 
REMARK    8  A    between atoms: C1_11  and  C4_14 
REMARK    9  A    between atoms: C1_11  and  C5_15 
REMARK   10  A    between atoms: C2_12  and  C4_14 
REMARK   11  A    between atoms: C2_12  and  C3_13 
REMARK   12  A    between atoms: C2_12  and  C6_16 
ROOT
HETATM    1  O1  UNL     1     -39.320  12.807  49.037  1.00  0.00     0.000 OA
HETATM    2  O2  UNL     1     -41.204  13.627  49.005  1.00  0.00     0.000 OA
HETATM    3  O3  UNL     1     -41.010  11.831  48.189  1.00  0.00     0.000 OA
HETATM    4  O4  UNL     1     -39.508  14.605  49.854  1.00  0.00     0.000 OA
HETATM    5  O5  UNL     1     -41.324  10.603  47.531  1.00  0.00     0.002 OA
HETATM    6  O6  UNL     1     -39.986  10.863  47.957  1.00  0.00    -0.097 OA
HETATM    7  O7  UNL     1     -39.192  15.833  50.513  1.00  0.00     0.002 OA
HETATM    8  O8  UNL     1     -40.531  15.575  50.088  1.00  0.00    -0.097 OA
HETATM    9  N1  UNL     1     -40.773  11.099  47.893  1.00  0.00     0.430 N 
HETATM   10  N2  UNL     1     -39.743  15.338  50.152  1.00  0.00     0.430 N 
HETATM   11  C1  UNL     1     -40.614  13.067  48.870  1.00  0.00     0.142 A 
HETATM   12  C2  UNL     1     -39.906  13.365  49.172  1.00  0.00     0.142 A 
HETATM   13  C3  UNL     1     -40.459  12.327  48.551  1.00  0.00     0.331 A 
HETATM   14  C4  UNL     1     -40.060  14.110  49.493  1.00  0.00     0.331 A 
HETATM   15  C5  UNL     1     -39.662  12.167  48.654  1.00  0.00     0.192 A 
HETATM   16  C6  UNL     1     -40.862  14.272  49.390  1.00  0.00     0.192 A 
ENDROOT
TORSDOF 12
ENDMDL
