MODEL 1
REMARK VINA RESULT:     126.0      0.000      0.000
REMARK  17 active torsions:
REMARK  status: ('A' for Active; 'I' for Inactive)
REMARK    1  A    between atoms: N1_2  and  C4_11 
REMARK    2  A    between atoms: N2_3  and  C2_9 
REMARK    3  A    between atoms: N2_3  and  C4_11 
REMARK    4  A    between atoms: N3_4  and  N4_5 
REMARK    5  A    between atoms: N3_4  and  C4_11 
REMARK    6  A    between atoms: N4_5  and  C4_11 
REMARK    7  A    between atoms: C1_8  and  C4_11 
REMARK    8  A    between atoms: C2_9  and  C8_15 
REMARK    9  A    between atoms: C3_10  and  C5_12 
REMARK   10  A    between atoms: C3_10  and  C7_14 
REMARK   11  A    between atoms: C3_10  and  C10_17 
REMARK   12  A    between atoms: C4_11  and  C7_14 
REMARK   13  A    between atoms: C4_11  and  C10_17 
REMARK   14  A    between atoms: C5_12  and  C6_13 
REMARK   15  A    between atoms: C6_13  and  C8_15 
REMARK   16  A    between atoms: C6_13  and  C9_16 
REMARK   17  A    between atoms: C7_14  and  C10_17 
ROOT
HETATM    1  O1  UNL     1     -41.322  14.132  47.842  1.00  0.00     0.000 OA
HETATM    2  N1  UNL     1     -41.244  12.846  48.459  1.00  0.00     0.000 N 
HETATM    3  N2  UNL     1     -41.088  12.740  49.876  1.00  0.00     0.000 N 
HETATM    4  C1  UNL     1     -41.166  12.382  49.137  1.00  0.00     0.011 A 
HETATM    5  C2  UNL     1     -41.165  11.523  49.087  1.00  0.00     0.000 A 
HETATM    6  C3  UNL     1     -41.244  13.668  48.520  1.00  0.00     0.068 A 
HETATM    7  C4  UNL     1     -41.166  14.027  49.259  1.00  0.00     0.072 A 
HETATM    8  C5  UNL     1     -41.327  12.483  47.684  1.00  0.00     0.004 A 
HETATM    9  C6  UNL     1     -41.246  11.144  48.321  1.00  0.00     0.000 A 
HETATM   10  C7  UNL     1     -41.088  13.563  49.937  1.00  0.00     0.072 A 
HETATM   11  C8  UNL     1     -41.328  11.627  47.614  1.00  0.00     0.000 A 
HETATM   12  C9  UNL     1     -41.086  11.068  49.769  1.00  0.00     0.000 A 
ENDROOT
BRANCH   6  13
HETATM   13  C10 UNL     1     -41.165  14.849  49.320  1.00  0.00     0.473 A 
HETATM   14  N3  UNL     1     -40.669  14.531  49.898  1.00  0.00     0.000 N 
HETATM   15  N5  UNL     1     -40.522  15.117  50.459  1.00  0.00     0.649 N 
HETATM   16  N6  UNL     1     -40.927  15.797  50.230  1.00  0.00     0.649 N 
HETATM   17  N4  UNL     1     -41.325  15.633  49.525  1.00  0.00     0.000 N 
ENDBRANCH   6  13
TORSDOF 17
ENDMDL
