MODEL 1
REMARK VINA RESULT:      26.3      0.000      0.000
REMARK  4 active torsions:
REMARK  status: ('A' for Active; 'I' for Inactive)
REMARK    1  A    between atoms: N1_3  and  C5_8 
REMARK    2  A    between atoms: C2_5  and  C3_6 
REMARK    3  A    between atoms: C3_6  and  C4_7 
REMARK    4  A    between atoms: C3_6  and  C5_8 
ROOT
HETATM    1 CL1  UNL     1     -38.450  15.838  50.509  1.00  0.00    -0.193 Cl
HETATM    2 CL2  UNL     1     -41.326  14.254  47.753  1.00  0.00    -0.193 Cl
HETATM    3  N1  UNL     1     -40.188  15.107  49.408  1.00  0.00     0.000 N 
HETATM    4  C1  UNL     1     -39.409  15.310  49.590  1.00  0.00     0.082 A 
HETATM    5  C2  UNL     1     -40.367  14.782  48.672  1.00  0.00     0.082 A 
HETATM    6  C3  UNL     1     -40.787  15.230  49.962  1.00  0.00     0.056 A 
HETATM    7  C4  UNL     1     -39.229  15.635  50.327  1.00  0.00     0.082 A 
HETATM    8  C5  UNL     1     -41.146  14.579  48.490  1.00  0.00     0.082 A 
ENDROOT
TORSDOF 4
ENDMDL
