MODEL 1
REMARK VINA RESULT:     336.3      0.000      0.000
REMARK WARNING: 32 MAX_TORS EXCEEDED!!!
REMARK  42 active torsions:
REMARK  status: ('A' for Active; 'I' for Inactive)
REMARK    1  A    between atoms: O1_1  and  C15_18 
REMARK    2  A    between atoms: O2_2  and  C15_18 
REMARK    3  A    between atoms: O3_3  and  C18_21 
REMARK    4  A    between atoms: C1_4  and  C4_7 
REMARK    5  A    between atoms: C1_4  and  C7_10 
REMARK    6  A    between atoms: C1_4  and  C10_13 
REMARK    7  A    between atoms: C1_4  and  C13_16 
REMARK    8  A    between atoms: C2_5  and  C4_7 
REMARK    9  A    between atoms: C2_5  and  C7_10 
REMARK   10  A    between atoms: C2_5  and  C11_14 
REMARK   11  A    between atoms: C3_6  and  C6_9 
REMARK   12  A    between atoms: C3_6  and  C7_10 
REMARK   13  A    between atoms: C3_6  and  C8_11 
REMARK   14  A    between atoms: C3_6  and  C12_15 
REMARK   15  A    between atoms: C3_6  and  C16_19 
REMARK   16  A    between atoms: C4_7  and  C6_9 
REMARK   17  A    between atoms: C4_7  and  C9_12 
REMARK   18  A    between atoms: C4_7  and  C15_18 
REMARK   19  A    between atoms: C5_8  and  C6_9 
REMARK   20  A    between atoms: C5_8  and  C8_11 
REMARK   21  A    between atoms: C5_8  and  C11_14 
REMARK   22  A    between atoms: C6_9  and  C7_10 
REMARK   23  A    between atoms: C6_9  and  C12_15 
REMARK   24  A    between atoms: C6_9  and  C13_16 
REMARK   25  A    between atoms: C6_9  and  C14_17 
REMARK   26  A    between atoms: C7_10  and  C12_15 
REMARK   27  A    between atoms: C7_10  and  C13_16 
REMARK   28  A    between atoms: C8_11  and  C9_12 
REMARK   29  A    between atoms: C8_11  and  C10_13 
REMARK   30  A    between atoms: C9_12  and  C16_19 
REMARK   31  A    between atoms: C10_13  and  C11_14 
REMARK   32  A    between atoms: C10_13  and  C13_16 
REMARK   33  A    between atoms: C10_13  and  C14_17 
REMARK   34  A    between atoms: C10_13  and  C19_22 
REMARK   35  A    between atoms: C11_14  and  C17_20 
REMARK   36  A    between atoms: C12_15  and  C16_19 
REMARK   37  A    between atoms: C13_16  and  C14_17 
REMARK   38  A    between atoms: C13_16  and  C18_21 
REMARK   39  A    between atoms: C14_17  and  C19_22 
REMARK   40  A    between atoms: C15_18  and  C16_19 
REMARK   41  A    between atoms: C17_20  and  C18_21 
REMARK   42  A    between atoms: C18_21  and  C19_22 
ROOT
HETATM    1  O1  UNL     1     -40.654  11.789  50.471  1.00  0.00     0.000 OA
HETATM    2  O2  UNL     1     -41.017  10.435  50.482  1.00  0.00     0.000 OA
HETATM    3  O3  UNL     1     -36.598  15.837  50.339  1.00  0.00     0.000 OA
HETATM    4  C1  UNL     1     -38.732  12.706  50.408  1.00  0.00     0.000 A 
HETATM    5  C2  UNL     1     -38.932  13.472  50.415  1.00  0.00     0.000 A 
HETATM    6  C3  UNL     1     -39.295  12.150  50.426  1.00  0.00     0.000 A 
HETATM    7  C4  UNL     1     -40.059  12.359  50.452  1.00  0.00     0.000 A 
HETATM    8  C5  UNL     1     -38.354  14.061  50.396  1.00  0.00     0.000 A 
HETATM    9  C6  UNL     1     -39.695  13.682  50.440  1.00  0.00     0.000 A 
HETATM   10  C7  UNL     1     -40.258  13.126  50.458  1.00  0.00     0.000 A 
HETATM   11  C8  UNL     1     -37.940  12.475  50.382  1.00  0.00     0.000 A 
HETATM   12  C9  UNL     1     -39.074  11.354  50.419  1.00  0.00     0.000 A 
HETATM   13  C10 UNL     1     -37.558  13.848  50.370  1.00  0.00     0.000 A 
HETATM   14  C11 UNL     1     -37.349  13.050  50.363  1.00  0.00     0.000 A 
HETATM   15  C12 UNL     1     -40.822  12.568  50.477  1.00  0.00     0.000 A 
HETATM   16  C13 UNL     1     -39.120  14.265  50.422  1.00  0.00     0.000 A 
HETATM   17  C14 UNL     1     -38.591  14.887  50.404  1.00  0.00     0.000 A 
HETATM   18  C15 UNL     1     -39.657  10.770  50.438  1.00  0.00     0.000 A 
HETATM   19  C16 UNL     1     -40.451  10.989  50.464  1.00  0.00     0.000 A 
HETATM   20  C17 UNL     1     -36.942  14.448  50.350  1.00  0.00     0.000 A 
HETATM   21  C18 UNL     1     -37.989  15.500  50.385  1.00  0.00     0.000 A 
HETATM   22  C19 UNL     1     -37.159  15.279  50.358  1.00  0.00     0.000 A 
ENDROOT
TORSDOF 42
ENDMDL
