MODEL 1
REMARK VINA RESULT:     276.6      0.000      0.000
REMARK  31 active torsions:
REMARK  status: ('A' for Active; 'I' for Inactive)
REMARK    1  A    between atoms: CL1_1  and  C10_16 
REMARK    2  A    between atoms: CL2_2  and  N2_4 
REMARK    3  A    between atoms: N1_3  and  N3_5 
REMARK    4  A    between atoms: N1_3  and  N4_6 
REMARK    5  A    between atoms: N1_3  and  C5_11 
REMARK    6  A    between atoms: N2_4  and  C3_9 
REMARK    7  A    between atoms: N3_5  and  C5_11 
REMARK    8  A    between atoms: N4_6  and  C12_18 
REMARK    9  A    between atoms: C1_7  and  C4_10 
REMARK   10  A    between atoms: C2_8  and  C7_13 
REMARK   11  A    between atoms: C2_8  and  C8_14 
REMARK   12  A    between atoms: C2_8  and  C11_17 
REMARK   13  A    between atoms: C2_8  and  C14_20 
REMARK   14  A    between atoms: C3_9  and  C5_11 
REMARK   15  A    between atoms: C3_9  and  C6_12 
REMARK   16  A    between atoms: C4_10  and  C9_15 
REMARK   17  A    between atoms: C6_12  and  C7_13 
REMARK   18  A    between atoms: C7_13  and  C11_17 
REMARK   19  A    between atoms: C7_13  and  C12_18 
REMARK   20  A    between atoms: C8_14  and  C9_15 
REMARK   21  A    between atoms: C8_14  and  C15_21 
REMARK   22  A    between atoms: C8_14  and  C17_23 
REMARK   23  A    between atoms: C9_15  and  C10_16 
REMARK   24  A    between atoms: C9_15  and  C14_20 
REMARK   25  A    between atoms: C10_16  and  C11_17 
REMARK   26  A    between atoms: C13_19  and  C14_20 
REMARK   27  A    between atoms: C13_19  and  C16_22 
REMARK   28  A    between atoms: C14_20  and  C15_21 
REMARK   29  A    between atoms: C14_20  and  C17_23 
REMARK   30  A    between atoms: C15_21  and  C16_22 
REMARK   31  A    between atoms: C16_22  and  C17_23 
ROOT
HETATM    1 CL1  UNL     1     -40.259  11.708  50.467  1.00  0.00    -0.249 Cl
HETATM    2 CL2  UNL     1     -39.345  15.836  50.524  1.00  0.00    -0.288 Cl
HETATM    3  N1  UNL     1     -37.330  13.334  50.508  1.00  0.00     0.000 N 
HETATM    4  N2  UNL     1     -38.400  14.847  50.519  1.00  0.00     0.000 N 
HETATM    5  N3  UNL     1     -36.281  14.150  50.526  1.00  0.00     0.000 N 
HETATM    6  N4  UNL     1     -36.003  13.378  50.518  1.00  0.00     0.000 N 
HETATM    7  C1  UNL     1     -38.092  13.020  50.498  1.00  0.00     0.029 A 
HETATM    8  C2  UNL     1     -38.813  13.420  50.498  1.00  0.00     0.039 A 
HETATM    9  C3  UNL     1     -37.100  14.126  50.519  1.00  0.00     0.004 A 
HETATM   10  C4  UNL     1     -38.950  14.233  50.507  1.00  0.00     0.035 A 
HETATM   11  C5  UNL     1     -37.576  14.799  50.524  1.00  0.00     0.011 A 
HETATM   12  C6  UNL     1     -36.650  12.875  50.507  1.00  0.00     0.005 A 
HETATM   13  C7  UNL     1     -38.065  12.161  50.488  1.00  0.00     0.026 A 
HETATM   14  C8  UNL     1     -39.743  14.463  50.504  1.00  0.00     0.037 A 
HETATM   15  C9  UNL     1     -39.557  12.989  50.487  1.00  0.00     0.049 A 
HETATM   16  C10 UNL     1     -38.798  11.713  50.477  1.00  0.00     0.055 A 
HETATM   17  C11 UNL     1     -39.550  12.130  50.477  1.00  0.00     0.056 A 
HETATM   18  C12 UNL     1     -36.623  12.051  50.497  1.00  0.00     0.003 A 
HETATM   19  C13 UNL     1     -39.940  15.264  50.513  1.00  0.00     0.039 A 
HETATM   20  C14 UNL     1     -40.338  13.892  50.493  1.00  0.00     0.041 A 
HETATM   21  C15 UNL     1     -40.733  15.494  50.510  1.00  0.00     0.040 A 
HETATM   22  C16 UNL     1     -41.130  14.122  50.490  1.00  0.00     0.034 A 
HETATM   23  C17 UNL     1     -41.327  14.923  50.499  1.00  0.00     0.034 A 
ENDROOT
TORSDOF 31
ENDMDL
