MODEL 1
REMARK VINA RESULT:     408.1      0.000      0.000
REMARK WARNING: 32 MAX_TORS EXCEEDED!!!
REMARK  36 active torsions:
REMARK  status: ('A' for Active; 'I' for Inactive)
REMARK    1  A    between atoms: O1_1  and  C1_8 
REMARK    2  A    between atoms: O1_1  and  C2_9 
REMARK    3  A    between atoms: O2_2  and  C16_23 
REMARK    4  A    between atoms: O3_3  and  C15_22 
REMARK    5  A    between atoms: N1_6  and  C3_10 
REMARK    6  A    between atoms: N2_7  and  C9_16 
REMARK    7  A    between atoms: N2_7  and  C6_13 
REMARK    8  A    between atoms: N2_7  and  C11_18 
REMARK    9  A    between atoms: C1_8  and  C6_13 
REMARK   10  A    between atoms: C1_8  and  C4_11 
REMARK   11  A    between atoms: C1_8  and  C5_12 
REMARK   12  A    between atoms: C1_8  and  C9_16 
REMARK   13  A    between atoms: C1_8  and  C13_20 
REMARK   14  A    between atoms: C2_9  and  C5_12 
REMARK   15  A    between atoms: C2_9  and  C6_13 
REMARK   16  A    between atoms: C3_10  and  C5_12 
REMARK   17  A    between atoms: C3_10  and  C4_11 
REMARK   18  A    between atoms: C3_10  and  C6_13 
REMARK   19  A    between atoms: C3_10  and  C8_15 
REMARK   20  A    between atoms: C3_10  and  C13_20 
REMARK   21  A    between atoms: C4_11  and  C10_17 
REMARK   22  A    between atoms: C5_12  and  C7_14 
REMARK   23  A    between atoms: C5_12  and  C13_20 
REMARK   24  A    between atoms: C6_13  and  C9_16 
REMARK   25  A    between atoms: C7_14  and  C14_21 
REMARK   26  A    between atoms: C8_15  and  C9_16 
REMARK   27  A    between atoms: C8_15  and  C11_18 
REMARK   28  A    between atoms: C8_15  and  C19_26 
REMARK   29  A    between atoms: C9_16  and  C12_19 
REMARK   30  A    between atoms: C11_18  and  C12_19 
REMARK   31  A    between atoms: C12_19  and  C13_20 
REMARK   32  A    between atoms: C12_19  and  C18_25 
REMARK   33  A    between atoms: C13_20  and  C17_24 
REMARK   34  A    between atoms: C13_20  and  C19_26 
REMARK   35  A    between atoms: C17_24  and  C18_25 
REMARK   36  A    between atoms: C18_25  and  C19_26 
ROOT
HETATM    1  O1  UNL     1     -37.326  14.983  48.940  1.00  0.00     0.000 OA
HETATM    2  O2  UNL     1     -38.237  15.487  49.467  1.00  0.00     0.000 OA
HETATM    3  O3  UNL     1     -39.194  15.771  49.865  1.00  0.00     0.000 OA
HETATM    4  C6  UNL     1     -38.129  14.808  49.012  1.00  0.00     0.000 A 
HETATM    5  C9  UNL     1     -39.367  15.073  49.461  1.00  0.00     0.000 A 
HETATM    6  C11 UNL     1     -40.159  15.139  49.683  1.00  0.00     0.000 A 
HETATM    7  C15 UNL     1     -40.405  15.778  50.145  1.00  0.00     0.000 A 
HETATM    8  C16 UNL     1     -37.018  15.660  49.300  1.00  0.00     0.000 A 
ENDROOT
BRANCH   1   9
HETATM    9  C1  UNL     1     -38.437  14.132  48.652  1.00  0.00     0.002 A 
HETATM   10  N2  UNL     1     -39.057  14.575  48.335  1.00  0.00     0.000 N 
HETATM   11  C8  UNL     1     -39.763  14.203  48.123  1.00  0.00     0.000 A 
HETATM   12  C3  UNL     1     -38.894  13.448  48.591  1.00  0.00     0.002 A 
HETATM   13  C12 UNL     1     -40.382  14.646  47.806  1.00  0.00     0.000 A 
HETATM   14  C13 UNL     1     -39.848  13.389  48.228  1.00  0.00     0.000 A 
HETATM   15  C17 UNL     1     -41.087  14.274  47.594  1.00  0.00     0.000 A 
HETATM   16  C18 UNL     1     -40.553  13.018  48.017  1.00  0.00     0.000 A 
HETATM   17  C19 UNL     1     -41.174  13.461  47.699  1.00  0.00     0.000 A 
HETATM   18  C2  UNL     1     -37.672  14.091  48.958  1.00  0.00     0.003 A 
HETATM   19  C4  UNL     1     -37.364  13.366  49.202  1.00  0.00     0.025 A 
HETATM   20  N1  UNL     1     -37.820  12.681  49.140  1.00  0.00     0.000 N 
HETATM   21  C5  UNL     1     -38.586  12.723  48.835  1.00  0.00     0.006 A 
HETATM   22  C7  UNL     1     -37.511  11.956  49.384  1.00  0.00     0.052 A 
HETATM   23  C10 UNL     1     -36.747  11.915  49.690  1.00  0.00     0.117 A 
HETATM   24  C14 UNL     1     -36.438  11.190  49.934  1.00  0.00     0.117 A 
HETATM   25  O4  UNL     1     -35.673  11.149  50.240  1.00  0.00     0.000 OA
HETATM   26  O5  UNL     1     -36.895  10.506  49.872  1.00  0.00    -0.359 OA
HETATM   27  C20 UNL     1     -35.364  10.424  50.484  1.00  0.00     0.032 A 
ENDBRANCH   1   9
TORSDOF 36
ENDMDL
