MODEL 1
REMARK VINA RESULT:     238.7      0.000      0.000
REMARK  21 active torsions:
REMARK  status: ('A' for Active; 'I' for Inactive)
REMARK    1  A    between atoms: CL2_2  and  O1_3 
REMARK    2  A    between atoms: CL2_2  and  C7_13 
REMARK    3  A    between atoms: O1_3  and  C9_15 
REMARK    4  A    between atoms: O1_3  and  C13_19 
REMARK    5  A    between atoms: C1_7  and  C2_8 
REMARK    6  A    between atoms: C1_7  and  C7_13 
REMARK    7  A    between atoms: C1_7  and  C8_14 
REMARK    8  A    between atoms: C1_7  and  C11_17 
REMARK    9  A    between atoms: C2_8  and  C6_12 
REMARK   10  A    between atoms: C3_9  and  C5_11 
REMARK   11  A    between atoms: C4_10  and  C11_17 
REMARK   12  A    between atoms: C5_11  and  C6_12 
REMARK   13  A    between atoms: C5_11  and  C7_13 
REMARK   14  A    between atoms: C5_11  and  C9_15 
REMARK   15  A    between atoms: C6_12  and  C7_13 
REMARK   16  A    between atoms: C6_12  and  C8_14 
REMARK   17  A    between atoms: C6_12  and  C11_17 
REMARK   18  A    between atoms: C7_13  and  C9_15 
REMARK   19  A    between atoms: C8_14  and  C9_15 
REMARK   20  A    between atoms: C9_15  and  C12_18 
REMARK   21  A    between atoms: C10_16  and  C11_17 
ROOT
HETATM    1 CL1  UNL     1     -36.310  14.651  50.119  1.00  0.00    -0.261 Cl
HETATM    2 CL2  UNL     1     -37.668  15.587  50.089  1.00  0.00    -0.236 Cl
HETATM    3  O1  UNL     1     -39.156  14.887  50.230  1.00  0.00     0.000 OA
HETATM    4  O2  UNL     1     -35.696  13.364  50.220  1.00  0.00     0.000 OA
HETATM    5  O3  UNL     1     -41.323  14.656  50.357  1.00  0.00    -0.305 OA
HETATM    6  O4  UNL     1     -40.514  15.824  50.200  1.00  0.00    -0.305 OA
HETATM    7  C1  UNL     1     -37.119  13.483  50.276  1.00  0.00     0.061 A 
HETATM    8  C2  UNL     1     -36.504  12.197  50.377  1.00  0.00     0.027 A 
HETATM    9  C3  UNL     1     -36.440  13.015  50.291  1.00  0.00     0.044 A 
HETATM   10  C4  UNL     1     -35.825  11.729  50.393  1.00  0.00     0.015 A 
HETATM   11  C5  UNL     1     -37.055  14.301  50.190  1.00  0.00     0.072 A 
HETATM   12  C6  UNL     1     -37.863  13.134  50.347  1.00  0.00     0.065 A 
HETATM   13  C7  UNL     1     -38.477  14.419  50.246  1.00  0.00     0.104 A 
HETATM   14  C8  UNL     1     -37.734  14.769  50.175  1.00  0.00     0.078 A 
HETATM   15  C9  UNL     1     -38.542  13.602  50.332  1.00  0.00     0.101 A 
HETATM   16  C10 UNL     1     -35.890  10.911  50.479  1.00  0.00     0.006 A 
HETATM   17  C11 UNL     1     -37.248  11.847  50.448  1.00  0.00     0.027 A 
HETATM   18  C12 UNL     1     -39.900  14.538  50.301  1.00  0.00     0.218 A 
HETATM   19  C13 UNL     1     -40.579  15.006  50.286  1.00  0.00     0.289 A 
ENDROOT
TORSDOF 21
ENDMDL
