MODEL 1
REMARK VINA RESULT:     298.5      0.000      0.000
REMARK  31 active torsions:
REMARK  status: ('A' for Active; 'I' for Inactive)
REMARK    1  A    between atoms: O1_1  and  C5_9 
REMARK    2  A    between atoms: N1_2  and  C8_12 
REMARK    3  A    between atoms: N2_3  and  C17_21 
REMARK    4  A    between atoms: N3_4  and  C14_18 
REMARK    5  A    between atoms: N3_4  and  C18_22 
REMARK    6  A    between atoms: C1_5  and  C4_8 
REMARK    7  A    between atoms: C1_5  and  C5_9 
REMARK    8  A    between atoms: C1_5  and  C14_18 
REMARK    9  A    between atoms: C2_6  and  C4_8 
REMARK   10  A    between atoms: C2_6  and  C5_9 
REMARK   11  A    between atoms: C2_6  and  C7_11 
REMARK   12  A    between atoms: C2_6  and  C14_18 
REMARK   13  A    between atoms: C3_7  and  C5_9 
REMARK   14  A    between atoms: C3_7  and  C6_10 
REMARK   15  A    between atoms: C4_8  and  C6_10 
REMARK   16  A    between atoms: C5_9  and  C6_10 
REMARK   17  A    between atoms: C5_9  and  C9_13 
REMARK   18  A    between atoms: C6_10  and  C7_11 
REMARK   19  A    between atoms: C6_10  and  C8_12 
REMARK   20  A    between atoms: C8_12  and  C9_13 
REMARK   21  A    between atoms: C8_12  and  C12_16 
REMARK   22  A    between atoms: C8_12  and  C16_20 
REMARK   23  A    between atoms: C9_13  and  C10_14 
REMARK   24  A    between atoms: C9_13  and  C11_15 
REMARK   25  A    between atoms: C9_13  and  C15_19 
REMARK   26  A    between atoms: C11_15  and  C12_16 
REMARK   27  A    between atoms: C11_15  and  C16_20 
REMARK   28  A    between atoms: C12_16  and  C15_19 
REMARK   29  A    between atoms: C13_17  and  C14_18 
REMARK   30  A    between atoms: C14_18  and  C17_21 
REMARK   31  A    between atoms: C15_19  and  C16_20 
ROOT
HETATM    1  O1  UNL     1     -38.333  14.644  50.001  1.00  0.00     0.000 OA
HETATM    2  N1  UNL     1     -40.552  14.503  48.505  1.00  0.00     0.000 N 
HETATM    3  N2  UNL     1     -37.081  13.207  48.519  1.00  0.00     0.000 N 
HETATM    4  N3  UNL     1     -36.133  12.514  48.004  1.00  0.00     0.000 N 
HETATM    5  C1  UNL     1     -38.244  13.856  48.844  1.00  0.00     0.000 A 
HETATM    6  C2  UNL     1     -38.606  13.552  48.169  1.00  0.00     0.000 A 
HETATM    7  C3  UNL     1     -39.393  13.743  48.008  1.00  0.00     0.000 A 
HETATM    8  C4  UNL     1     -39.806  14.235  48.525  1.00  0.00     0.000 A 
HETATM    9  C5  UNL     1     -39.458  14.528  49.173  1.00  0.00     0.000 A 
HETATM   10  C6  UNL     1     -38.672  14.347  49.350  1.00  0.00     0.000 A 
HETATM   11  C7  UNL     1     -37.489  13.678  49.007  1.00  0.00     0.000 A 
HETATM   12  C8  UNL     1     -39.989  14.976  49.555  1.00  0.00     0.000 A 
HETATM   13  C9  UNL     1     -40.664  14.961  49.142  1.00  0.00     0.000 A 
HETATM   14  C10 UNL     1     -41.090  14.342  47.946  1.00  0.00     0.000 A 
HETATM   15  C11 UNL     1     -39.930  15.410  50.254  1.00  0.00     0.000 A 
HETATM   16  C12 UNL     1     -41.327  15.378  49.399  1.00  0.00     0.000 A 
HETATM   17  C13 UNL     1     -36.326  12.983  48.612  1.00  0.00     0.000 A 
HETATM   18  C14 UNL     1     -37.354  12.875  47.854  1.00  0.00     0.000 A 
HETATM   19  C15 UNL     1     -40.583  15.833  50.526  1.00  0.00     0.000 A 
HETATM   20  C16 UNL     1     -41.287  15.818  50.097  1.00  0.00     0.000 A 
HETATM   21  C17 UNL     1     -36.768  12.447  47.535  1.00  0.00     0.000 A 
HETATM   22  C18 UNL     1     -35.849  13.193  49.209  1.00  0.00     0.000 A 
ENDROOT
TORSDOF 31
ENDMDL
