MODEL 1
REMARK VINA RESULT:      70.0      0.000      0.000
REMARK  19 active torsions:
REMARK  status: ('A' for Active; 'I' for Inactive)
REMARK    1  A    between atoms: S1_1  and  N1_5 
REMARK    2  A    between atoms: S1_1  and  C2_8 
REMARK    3  A    between atoms: O1_2  and  C3_9 
REMARK    4  A    between atoms: O3_4  and  N1_5 
REMARK    5  A    between atoms: O3_4  and  C1_7 
REMARK    6  A    between atoms: O3_4  and  C2_8 
REMARK    7  A    between atoms: N1_5  and  C1_7 
REMARK    8  A    between atoms: C1_7  and  C2_8 
REMARK    9  A    between atoms: C1_7  and  C3_9 
REMARK   10  A    between atoms: C2_8  and  C4_10 
REMARK   11  A    between atoms: C3_9  and  C4_10 
REMARK   12  A    between atoms: C3_9  and  C6_12 
REMARK   13  A    between atoms: C3_9  and  C8_14 
REMARK   14  A    between atoms: C4_10  and  C5_11 
REMARK   15  A    between atoms: C4_10  and  C7_13 
REMARK   16  A    between atoms: C5_11  and  C6_12 
REMARK   17  A    between atoms: C5_11  and  C8_14 
REMARK   18  A    between atoms: C6_12  and  C7_13 
REMARK   19  A    between atoms: C7_13  and  C8_14 
ROOT
HETATM    1  S1  UNL     1     -40.783  15.374  49.915  1.00  0.00    -0.087 SA
HETATM    2  O2  UNL     1     -40.300  15.794  50.435  1.00  0.00     0.000 OA
HETATM    3  O3  UNL     1     -41.265  14.955  49.394  1.00  0.00     0.000 OA
HETATM    4  N2  UNL     1     -41.322  15.240  50.524  1.00  0.00    -0.072 NA
HETATM    5  C1  UNL     1     -40.243  15.509  49.306  1.00  0.00     0.065 A 
ENDROOT
BRANCH   1   6
HETATM    6  N1  UNL     1     -41.048  14.778  48.324  1.00  0.00     0.000 N 
HETATM    7  O1  UNL     1     -41.172  14.291  47.676  1.00  0.00     0.000 OA
HETATM    8  C4  UNL     1     -41.183  13.514  47.938  1.00  0.00     0.010 A 
HETATM    9  C2  UNL     1     -40.983  14.304  48.990  1.00  0.00     0.049 A 
HETATM   10  C6  UNL     1     -41.285  12.798  47.544  1.00  0.00     0.003 A 
HETATM   11  C8  UNL     1     -41.269  12.088  47.965  1.00  0.00     0.003 A 
HETATM   12  C3  UNL     1     -41.066  13.522  48.755  1.00  0.00     0.017 A 
HETATM   13  C5  UNL     1     -41.050  12.814  49.177  1.00  0.00     0.010 A 
HETATM   14  C7  UNL     1     -41.152  12.096  48.781  1.00  0.00     0.003 A 
ENDBRANCH   1   6
TORSDOF 19
ENDMDL
