MODEL 1
REMARK VINA RESULT:     110.8      0.000      0.000
REMARK  13 active torsions:
REMARK  status: ('A' for Active; 'I' for Inactive)
REMARK    1  A    between atoms: S1_1  and  C2_10 
REMARK    2  A    between atoms: O1_2  and  C2_10 
REMARK    3  A    between atoms: O2_3  and  C3_11 
REMARK    4  A    between atoms: O2_3  and  C6_14 
REMARK    5  A    between atoms: N1_6  and  N3_8 
REMARK    6  A    between atoms: N1_6  and  C7_15 
REMARK    7  A    between atoms: N2_7  and  C5_13 
REMARK    8  A    between atoms: N2_7  and  C8_16 
REMARK    9  A    between atoms: N3_8  and  C7_15 
REMARK   10  A    between atoms: C1_9  and  C3_11 
REMARK   11  A    between atoms: C1_9  and  C8_16 
REMARK   12  A    between atoms: C4_12  and  C5_13 
REMARK   13  A    between atoms: C5_13  and  C7_15 
ROOT
HETATM    1  S1  UNL     1     -37.351  15.729  49.853  1.00  0.00    -0.200 SA
HETATM    2  O1  UNL     1     -37.934  15.722  50.437  1.00  0.00     0.000 OA
HETATM    3  O2  UNL     1     -36.768  15.735  49.270  1.00  0.00     0.000 OA
HETATM    4  O3  UNL     1     -41.328  15.770  49.810  1.00  0.00    -0.197 OA
HETATM    5  O4  UNL     1     -40.054  15.743  50.458  1.00  0.00    -0.197 OA
HETATM    6  N1  UNL     1     -39.314  15.769  48.901  1.00  0.00     0.000 N 
HETATM    7  N2  UNL     1     -39.921  15.800  47.713  1.00  0.00     0.000 N 
HETATM    8  N3  UNL     1     -40.504  15.762  49.767  1.00  0.00     0.000 N 
HETATM    9  C1  UNL     1     -37.935  15.747  49.270  1.00  0.00     0.045 A 
HETATM   10  C2  UNL     1     -38.731  15.750  49.484  1.00  0.00     0.085 A 
HETATM   11  C3  UNL     1     -36.768  15.710  50.436  1.00  0.00     0.050 A 
HETATM   12  C4  UNL     1     -39.186  15.785  48.087  1.00  0.00     0.067 A 
HETATM   13  C5  UNL     1     -40.129  15.774  49.031  1.00  0.00     0.215 A 
HETATM   14  C6  UNL     1     -35.971  15.707  50.223  1.00  0.00     0.051 A 
HETATM   15  C7  UNL     1     -40.504  15.794  48.296  1.00  0.00     0.064 A 
HETATM   16  C8  UNL     1     -38.451  15.785  47.713  1.00  0.00     0.016 A 
ENDROOT
TORSDOF 13
ENDMDL
