MODEL 1
REMARK VINA RESULT:      23.1      0.000      0.000
REMARK  20 active torsions:
REMARK  status: ('A' for Active; 'I' for Inactive)
REMARK    1  A    between atoms: C1_2  and  C9_10 
REMARK    2  A    between atoms: C2_3  and  C4_5 
REMARK    3  A    between atoms: C2_3  and  C7_8 
REMARK    4  A    between atoms: C3_4  and  C8_9 
REMARK    5  A    between atoms: C3_4  and  C4_5 
REMARK    6  A    between atoms: C3_4  and  C7_8 
REMARK    7  A    between atoms: C3_4  and  C9_10 
REMARK    8  A    between atoms: C4_5  and  C9_10 
REMARK    9  A    between atoms: C4_5  and  C10_11 
REMARK   10  A    between atoms: C4_5  and  C5_6 
REMARK   11  A    between atoms: C4_5  and  C6_7 
REMARK   12  A    between atoms: C4_5  and  C8_9 
REMARK   13  A    between atoms: C5_6  and  C7_8 
REMARK   14  A    between atoms: C6_7  and  C7_8 
REMARK   15  A    between atoms: C6_7  and  C8_9 
REMARK   16  A    between atoms: C6_7  and  C9_10 
REMARK   17  A    between atoms: C7_8  and  C9_10 
REMARK   18  A    between atoms: C7_8  and  C10_11 
REMARK   19  A    between atoms: C8_9  and  C10_11 
REMARK   20  A    between atoms: C9_10  and  C10_11 
ROOT
HETATM    1  N1  UNL     1     -38.499  15.784  49.093  1.00  0.00    -0.285 NA
HETATM    2  C1  UNL     1     -39.290  15.730  49.413  1.00  0.00     0.041 A 
HETATM    3  C2  UNL     1     -40.179  15.786  50.528  1.00  0.00     0.031 A 
HETATM    4  C3  UNL     1     -40.988  15.519  49.473  1.00  0.00     0.020 A 
HETATM    5  C4  UNL     1     -40.688  15.519  49.221  1.00  0.00     0.029 A 
HETATM    6  C5  UNL     1     -39.416  15.838  50.220  1.00  0.00     0.041 A 
HETATM    7  C6  UNL     1     -40.162  15.575  49.140  1.00  0.00     0.029 A 
HETATM    8  C7  UNL     1     -39.926  15.571  48.913  1.00  0.00     0.032 A 
HETATM    9  C8  UNL     1     -41.089  15.638  50.334  1.00  0.00     0.015 A 
HETATM   10  C9  UNL     1     -40.673  15.636  49.971  1.00  0.00     0.029 A 
HETATM   11  C10 UNL     1     -41.325  15.359  48.722  1.00  0.00     0.018 A 
ENDROOT
TORSDOF 20
ENDMDL
