MODEL 1
REMARK VINA RESULT:     381.5      0.000      0.000
REMARK  27 active torsions:
REMARK  status: ('A' for Active; 'I' for Inactive)
REMARK    1  A    between atoms: S1_1  and  C11_17 
REMARK    2  A    between atoms: O1_2  and  C1_7 
REMARK    3  A    between atoms: O1_2  and  C6_12 
REMARK    4  A    between atoms: O1_2  and  C11_17 
REMARK    5  A    between atoms: O2_3  and  C2_8 
REMARK    6  A    between atoms: O2_3  and  C5_11 
REMARK    7  A    between atoms: N2_5  and  C9_15 
REMARK    8  A    between atoms: C1_7  and  C2_8 
REMARK    9  A    between atoms: C1_7  and  C4_10 
REMARK   10  A    between atoms: C2_8  and  C3_9 
REMARK   11  A    between atoms: C3_9  and  C4_10 
REMARK   12  A    between atoms: C6_12  and  C10_16 
REMARK   13  A    between atoms: C6_12  and  C13_19 
REMARK   14  A    between atoms: C7_13  and  C11_17 
REMARK   15  A    between atoms: C7_13  and  C13_19 
REMARK   16  A    between atoms: C7_13  and  C14_20 
REMARK   17  A    between atoms: C8_14  and  C10_16 
REMARK   18  A    between atoms: C8_14  and  C11_17 
REMARK   19  A    between atoms: C8_14  and  C13_19 
REMARK   20  A    between atoms: C9_15  and  C14_20 
REMARK   21  A    between atoms: C9_15  and  C10_16 
REMARK   22  A    between atoms: C9_15  and  C15_21 
REMARK   23  A    between atoms: C10_16  and  C11_17 
REMARK   24  A    between atoms: C11_17  and  C13_19 
REMARK   25  A    between atoms: C12_18  and  C14_20 
REMARK   26  A    between atoms: C12_18  and  C16_22 
REMARK   27  A    between atoms: C16_22  and  C17_23 
ROOT
HETATM    1  S1  UNL     1     -39.423  11.732  48.302  1.00  0.00    -0.226 SA
HETATM    2  O1  UNL     1     -39.944  12.284  48.627  1.00  0.00     0.000 OA
HETATM    3  O2  UNL     1     -38.902  11.181  47.976  1.00  0.00     0.000 OA
HETATM    4  N1  UNL     1     -40.062  11.268  48.065  1.00  0.00     0.000 N 
HETATM    5  N2  UNL     1     -39.134  15.042  50.136  1.00  0.00     0.000 N 
HETATM    6  N3  UNL     1     -35.801  15.216  50.116  1.00  0.00    -0.006 N 
HETATM    7  C1  UNL     1     -40.860  11.440  48.189  1.00  0.00     0.027 A 
HETATM    8  C2  UNL     1     -40.018  10.549  47.663  1.00  0.00     0.027 A 
HETATM    9  C3  UNL     1     -41.307  10.828  47.864  1.00  0.00     0.017 A 
HETATM   10  C4  UNL     1     -40.787  10.277  47.539  1.00  0.00     0.017 A 
HETATM   11  C5  UNL     1     -38.783  12.197  48.538  1.00  0.00     0.032 A 
HETATM   12  C6  UNL     1     -38.915  12.906  48.938  1.00  0.00     0.021 A 
HETATM   13  C7  UNL     1     -38.407  14.080  49.575  1.00  0.00     0.037 A 
HETATM   14  C8  UNL     1     -38.275  13.371  49.175  1.00  0.00     0.023 A 
HETATM   15  C9  UNL     1     -37.894  14.647  49.872  1.00  0.00     0.056 A 
HETATM   16  C10 UNL     1     -39.177  14.325  49.738  1.00  0.00     0.020 A 
HETATM   17  C11 UNL     1     -39.686  13.151  49.102  1.00  0.00     0.021 A 
HETATM   18  C12 UNL     1     -37.070  14.625  49.831  1.00  0.00     0.175 A 
HETATM   19  C13 UNL     1     -39.816  13.861  49.502  1.00  0.00     0.017 A 
HETATM   20  C14 UNL     1     -38.343  15.240  50.218  1.00  0.00     0.034 A 
HETATM   21  C15 UNL     1     -36.624  15.237  50.157  1.00  0.00     0.219 A 
HETATM   22  C16 UNL     1     -35.423  14.580  49.749  1.00  0.00     0.242 A 
HETATM   23  C17 UNL     1     -35.355  15.828  50.442  1.00  0.00     0.247 A 
ENDROOT
TORSDOF 27
ENDMDL
