MODEL 1
REMARK VINA RESULT:     303.4      0.000      0.000
REMARK  21 active torsions:
REMARK  status: ('A' for Active; 'I' for Inactive)
REMARK    1  A    between atoms: O1_1  and  C2_9 
REMARK    2  A    between atoms: N1_2  and  C1_8 
REMARK    3  A    between atoms: N2_3  and  C2_9 
REMARK    4  A    between atoms: N3_4  and  C9_16 
REMARK    5  A    between atoms: N3_4  and  C10_17 
REMARK    6  A    between atoms: C1_8  and  C5_12 
REMARK    7  A    between atoms: C1_8  and  C8_15 
REMARK    8  A    between atoms: C3_10  and  C4_11 
REMARK    9  A    between atoms: C3_10  and  C6_13 
REMARK   10  A    between atoms: C4_11  and  C5_12 
REMARK   11  A    between atoms: C4_11  and  C8_15 
REMARK   12  A    between atoms: C5_12  and  C11_18 
REMARK   13  A    between atoms: C7_14  and  C8_15 
REMARK   14  A    between atoms: C7_14  and  C10_17 
REMARK   15  A    between atoms: C7_14  and  C11_18 
REMARK   16  A    between atoms: C8_15  and  C9_16 
REMARK   17  A    between atoms: C8_15  and  C11_18 
REMARK   18  A    between atoms: C9_16  and  C11_18 
REMARK   19  A    between atoms: C9_16  and  C10_17 
REMARK   20  A    between atoms: C10_17  and  C11_18 
REMARK   21  A    between atoms: C13_20  and  C14_21 
ROOT
HETATM    1  N3  UNL     1     -36.678  13.705  50.523  1.00  0.00     0.000 N 
HETATM    2  N4  UNL     1     -37.437  14.030  50.521  1.00  0.00     0.000 N 
HETATM    3  N5  UNL     1     -36.213  15.838  50.524  1.00  0.00    -0.179 N 
HETATM    4  N6  UNL     1     -39.051  15.498  50.517  1.00  0.00    -0.179 N 
HETATM    5  C11 UNL     1     -36.581  12.886  50.523  1.00  0.00     0.000 A 
HETATM    6  C12 UNL     1     -37.534  14.849  50.521  1.00  0.00     0.057 A 
HETATM    7  C13 UNL     1     -36.874  15.343  50.522  1.00  0.00     0.151 A 
HETATM    8  C14 UNL     1     -38.293  15.174  50.519  1.00  0.00     0.151 A 
ENDROOT
BRANCH   1   9
HETATM    9  C9  UNL     1     -37.241  12.391  50.522  1.00  0.00     0.000 A 
HETATM   10  C7  UNL     1     -37.902  11.898  50.522  1.00  0.00     0.000 A 
HETATM   11  C5  UNL     1     -38.660  12.223  50.524  1.00  0.00     0.000 A 
HETATM   12  C3  UNL     1     -39.322  11.730  50.524  1.00  0.00     0.000 A 
HETATM   13  C8  UNL     1     -38.757  13.042  50.525  1.00  0.00     0.000 A 
HETATM   14  N1  UNL     1     -39.224  10.909  50.523  1.00  0.00     0.000 N 
HETATM   15  C10 UNL     1     -38.097  13.536  50.525  1.00  0.00     0.000 A 
HETATM   16  N2  UNL     1     -39.885  10.416  50.523  1.00  0.00     0.000 N 
HETATM   17  C6  UNL     1     -40.643  10.741  50.525  1.00  0.00     0.000 A 
HETATM   18  O1  UNL     1     -41.304  10.248  50.525  1.00  0.00     0.000 OA
HETATM   19  C2  UNL     1     -40.741  11.561  50.527  1.00  0.00     0.000 A 
HETATM   20  C1  UNL     1     -40.079  12.055  50.526  1.00  0.00     0.000 A 
HETATM   21  C4  UNL     1     -40.176  12.874  50.528  1.00  0.00     0.000 A 
ENDBRANCH   1   9
TORSDOF 21
ENDMDL
MODEL 2
REMARK VINA RESULT:     305.2      2.461      3.369
REMARK  21 active torsions:
REMARK  status: ('A' for Active; 'I' for Inactive)
REMARK    1  A    between atoms: O1_1  and  C2_9 
REMARK    2  A    between atoms: N1_2  and  C1_8 
REMARK    3  A    between atoms: N2_3  and  C2_9 
REMARK    4  A    between atoms: N3_4  and  C9_16 
REMARK    5  A    between atoms: N3_4  and  C10_17 
REMARK    6  A    between atoms: C1_8  and  C5_12 
REMARK    7  A    between atoms: C1_8  and  C8_15 
REMARK    8  A    between atoms: C3_10  and  C4_11 
REMARK    9  A    between atoms: C3_10  and  C6_13 
REMARK   10  A    between atoms: C4_11  and  C5_12 
REMARK   11  A    between atoms: C4_11  and  C8_15 
REMARK   12  A    between atoms: C5_12  and  C11_18 
REMARK   13  A    between atoms: C7_14  and  C8_15 
REMARK   14  A    between atoms: C7_14  and  C10_17 
REMARK   15  A    between atoms: C7_14  and  C11_18 
REMARK   16  A    between atoms: C8_15  and  C9_16 
REMARK   17  A    between atoms: C8_15  and  C11_18 
REMARK   18  A    between atoms: C9_16  and  C11_18 
REMARK   19  A    between atoms: C9_16  and  C10_17 
REMARK   20  A    between atoms: C10_17  and  C11_18 
REMARK   21  A    between atoms: C13_20  and  C14_21 
ROOT
HETATM    1  N3  UNL     1     -40.528  13.769  47.828  1.00  0.00     0.000 N 
HETATM    2  N4  UNL     1     -40.610  13.922  48.636  1.00  0.00     0.000 N 
HETATM    3  N5  UNL     1     -41.291  15.814  47.786  1.00  0.00    -0.179 N 
HETATM    4  N6  UNL     1     -41.055  14.959  50.503  1.00  0.00    -0.179 N 
HETATM    5  C11 UNL     1     -40.247  13.036  47.574  1.00  0.00     0.000 A 
HETATM    6  C12 UNL     1     -40.892  14.654  48.890  1.00  0.00     0.057 A 
HETATM    7  C13 UNL     1     -41.091  15.234  48.338  1.00  0.00     0.151 A 
HETATM    8  C14 UNL     1     -40.973  14.807  49.697  1.00  0.00     0.151 A 
ENDROOT
BRANCH   1   9
HETATM    9  C9  UNL     1     -40.047  12.457  48.126  1.00  0.00     0.000 A 
HETATM   10  C7  UNL     1     -39.501  11.964  48.500  1.00  0.00     0.000 A 
HETATM   11  C5  UNL     1     -38.890  12.290  48.948  1.00  0.00     0.000 A 
HETATM   12  C3  UNL     1     -38.343  11.797  49.321  1.00  0.00     0.000 A 
HETATM   13  C8  UNL     1     -38.825  13.109  49.023  1.00  0.00     0.000 A 
HETATM   14  N1  UNL     1     -38.408  10.977  49.246  1.00  0.00     0.000 N 
HETATM   15  C10 UNL     1     -39.371  13.602  48.650  1.00  0.00     0.000 A 
HETATM   16  N2  UNL     1     -37.862  10.485  49.619  1.00  0.00     0.000 N 
HETATM   17  C6  UNL     1     -37.251  10.810  50.068  1.00  0.00     0.000 A 
HETATM   18  O1  UNL     1     -36.705  10.318  50.440  1.00  0.00     0.000 OA
HETATM   19  C2  UNL     1     -37.186  11.630  50.143  1.00  0.00     0.000 A 
HETATM   20  C1  UNL     1     -37.733  12.123  49.769  1.00  0.00     0.000 A 
HETATM   21  C4  UNL     1     -37.668  12.942  49.844  1.00  0.00     0.000 A 
ENDBRANCH   1   9
TORSDOF 21
ENDMDL
