MODEL 1
REMARK VINA RESULT:     253.0      0.000      0.000
REMARK  21 active torsions:
REMARK  status: ('A' for Active; 'I' for Inactive)
REMARK    1  A    between atoms: C3_4  and  C4_5 
REMARK    2  A    between atoms: C3_4  and  C5_6 
REMARK    3  A    between atoms: C4_5  and  C12_13 
REMARK    4  A    between atoms: C4_5  and  C20_21 
REMARK    5  A    between atoms: C5_6  and  C6_7 
REMARK    6  A    between atoms: C5_6  and  C11_12 
REMARK    7  A    between atoms: C5_6  and  C12_13 
REMARK    8  A    between atoms: C7_8  and  C10_11 
REMARK    9  A    between atoms: C7_8  and  C11_12 
REMARK   10  A    between atoms: C8_9  and  C9_10 
REMARK   11  A    between atoms: C8_9  and  C12_13 
REMARK   12  A    between atoms: C9_10  and  C10_11 
REMARK   13  A    between atoms: C9_10  and  C13_14 
REMARK   14  A    between atoms: C10_11  and  C14_15 
REMARK   15  A    between atoms: C11_12  and  C17_18 
REMARK   16  A    between atoms: C12_13  and  C18_19 
REMARK   17  A    between atoms: C13_14  and  C15_16 
REMARK   18  A    between atoms: C14_15  and  C16_17 
REMARK   19  A    between atoms: C15_16  and  C17_18 
REMARK   20  A    between atoms: C16_17  and  C18_19 
REMARK   21  A    between atoms: C19_20  and  C20_21 
ROOT
HETATM    1  N1  UNL     1     -38.003  11.493  49.802  1.00  0.00    -0.008 N 
HETATM    2  C1  UNL     1     -39.921  13.554  49.312  1.00  0.00     0.025 A 
HETATM    3  C2  UNL     1     -40.197  14.296  49.540  1.00  0.00     0.006 A 
HETATM    4  C3  UNL     1     -40.201  13.064  48.710  1.00  0.00     0.023 A 
HETATM    5  C4  UNL     1     -38.962  12.524  49.557  1.00  0.00     0.154 A 
HETATM    6  C5  UNL     1     -39.280  13.262  49.742  1.00  0.00     0.049 A 
HETATM    7  C6  UNL     1     -38.321  12.232  49.987  1.00  0.00     0.217 A 
HETATM    8  C7  UNL     1     -40.821  14.733  49.224  1.00  0.00     0.002 A 
HETATM    9  C8  UNL     1     -40.826  13.196  48.188  1.00  0.00     0.005 A 
HETATM   10  C9  UNL     1     -41.323  14.535  48.601  1.00  0.00     0.000 A 
HETATM   11  C10 UNL     1     -41.326  13.851  48.140  1.00  0.00     0.002 A 
HETATM   12  C11 UNL     1     -39.734  14.601  50.197  1.00  0.00     0.005 A 
HETATM   13  C12 UNL     1     -39.741  12.339  48.673  1.00  0.00     0.026 A 
HETATM   14  C13 UNL     1     -41.025  15.505  49.542  1.00  0.00     0.000 A 
HETATM   15  C14 UNL     1     -41.035  12.612  47.593  1.00  0.00     0.002 A 
HETATM   16  C15 UNL     1     -39.923  15.371  50.528  1.00  0.00     0.000 A 
HETATM   17  C16 UNL     1     -39.936  11.744  48.084  1.00  0.00     0.003 A 
HETATM   18  C17 UNL     1     -40.574  15.826  50.198  1.00  0.00     0.000 A 
HETATM   19  C18 UNL     1     -40.587  11.882  47.541  1.00  0.00     0.002 A 
HETATM   20  C19 UNL     1     -37.362  11.202  50.232  1.00  0.00     0.247 A 
HETATM   21  C20 UNL     1     -38.325  11.047  49.189  1.00  0.00     0.240 A 
ENDROOT
TORSDOF 21
ENDMDL
