MODEL 1
REMARK VINA RESULT:     387.8      0.000      0.000
REMARK  24 active torsions:
REMARK  status: ('A' for Active; 'I' for Inactive)
REMARK    1  A    between atoms: N1_3  and  C7_10 
REMARK    2  A    between atoms: C1_4  and  C7_10 
REMARK    3  A    between atoms: C2_5  and  C3_6 
REMARK    4  A    between atoms: C2_5  and  C5_8 
REMARK    5  A    between atoms: C3_6  and  C4_7 
REMARK    6  A    between atoms: C3_6  and  C6_9 
REMARK    7  A    between atoms: C3_6  and  C8_11 
REMARK    8  A    between atoms: C4_7  and  C5_8 
REMARK    9  A    between atoms: C4_7  and  C7_10 
REMARK   10  A    between atoms: C4_7  and  C15_18 
REMARK   11  A    between atoms: C6_9  and  C13_16 
REMARK   12  A    between atoms: C8_11  and  C9_12 
REMARK   13  A    between atoms: C8_11  and  C12_15 
REMARK   14  A    between atoms: C9_12  and  C11_14 
REMARK   15  A    between atoms: C9_12  and  C13_16 
REMARK   16  A    between atoms: C10_13  and  C18_21 
REMARK   17  A    between atoms: C11_14  and  C12_15 
REMARK   18  A    between atoms: C12_15  and  C13_16 
REMARK   19  A    between atoms: C14_17  and  C15_18 
REMARK   20  A    between atoms: C14_17  and  C17_20 
REMARK   21  A    between atoms: C15_18  and  C16_19 
REMARK   22  A    between atoms: C15_18  and  C18_21 
REMARK   23  A    between atoms: C16_19  and  C17_20 
REMARK   24  A    between atoms: C17_20  and  C18_21 
ROOT
HETATM    1 CL1  UNL     1     -37.543  13.972  47.571  1.00  0.00    -0.198 Cl
HETATM    2  O1  UNL     1     -37.742  11.822  49.443  1.00  0.00     0.000 OA
HETATM    3  N1  UNL     1     -39.145  13.417  48.945  1.00  0.00     0.000 N 
HETATM    4  C1  UNL     1     -38.820  12.750  49.303  1.00  0.00     0.024 A 
HETATM    5  C2  UNL     1     -39.897  13.678  49.164  1.00  0.00     0.012 A 
HETATM    6  C3  UNL     1     -38.720  13.825  48.368  1.00  0.00     0.040 A 
HETATM    7  C4  UNL     1     -38.068  12.489  49.085  1.00  0.00     0.021 A 
HETATM    8  C5  UNL     1     -39.246  12.343  49.881  1.00  0.00     0.005 A 
HETATM    9  C6  UNL     1     -40.223  14.346  48.806  1.00  0.00     0.009 A 
HETATM   10  C7  UNL     1     -37.968  13.564  48.149  1.00  0.00     0.064 A 
HETATM   11  C8  UNL     1     -39.797  14.753  48.228  1.00  0.00     0.009 A 
HETATM   12  C9  UNL     1     -40.974  14.606  49.025  1.00  0.00     0.003 A 
HETATM   13  C10 UNL     1     -36.991  11.562  49.224  1.00  0.00     0.002 A 
HETATM   14  C11 UNL     1     -40.123  15.421  47.870  1.00  0.00     0.002 A 
HETATM   15  C12 UNL     1     -41.300  15.274  48.666  1.00  0.00     0.002 A 
HETATM   16  C13 UNL     1     -40.875  15.681  48.089  1.00  0.00     0.002 A 
HETATM   17  C14 UNL     1     -36.665  10.894  49.582  1.00  0.00     0.000 A 
HETATM   18  C15 UNL     1     -36.565  11.969  48.647  1.00  0.00     0.002 A 
HETATM   19  C16 UNL     1     -35.913  10.633  49.364  1.00  0.00     0.000 A 
HETATM   20  C17 UNL     1     -35.814  11.709  48.428  1.00  0.00     0.000 A 
HETATM   21  C18 UNL     1     -35.488  11.041  48.786  1.00  0.00     0.000 A 
ENDROOT
TORSDOF 24
ENDMDL
