MODEL 1
REMARK VINA RESULT:     262.3      0.000      0.000
REMARK  16 active torsions:
REMARK  status: ('A' for Active; 'I' for Inactive)
REMARK    1  A    between atoms: C2_3  and  C7_8 
REMARK    2  A    between atoms: C5_6  and  C10_11 
REMARK    3  A    between atoms: C5_6  and  C18_19 
REMARK    4  A    between atoms: C6_7  and  C19_20 
REMARK    5  A    between atoms: C7_8  and  C15_16 
REMARK    6  A    between atoms: C8_9  and  C16_17 
REMARK    7  A    between atoms: C9_10  and  C17_18 
REMARK    8  A    between atoms: C10_11  and  C11_12 
REMARK    9  A    between atoms: C11_12  and  C13_14 
REMARK   10  A    between atoms: C11_12  and  C18_19 
REMARK   11  A    between atoms: C12_13  and  C14_15 
REMARK   12  A    between atoms: C12_13  and  C19_20 
REMARK   13  A    between atoms: C13_14  and  C16_17 
REMARK   14  A    between atoms: C14_15  and  C17_18 
REMARK   15  A    between atoms: C16_17  and  C18_19 
REMARK   16  A    between atoms: C17_18  and  C19_20 
ROOT
HETATM    1  N1  UNL     1     -37.135  13.802  50.495  1.00  0.00    -0.275 NA
HETATM    2  C1  UNL     1     -39.702  12.832  50.510  1.00  0.00     0.017 A 
HETATM    3  C2  UNL     1     -40.204  12.220  50.517  1.00  0.00     0.016 A 
HETATM    4  C3  UNL     1     -41.321  12.623  50.517  1.00  0.00     0.022 A 
HETATM    5  C4  UNL     1     -41.242  11.835  50.523  1.00  0.00    -0.052 A 
HETATM    6  C5  UNL     1     -38.367  12.005  50.513  1.00  0.00     0.013 A 
HETATM    7  C6  UNL     1     -39.859  14.409  50.498  1.00  0.00     0.004 A 
HETATM    8  C7  UNL     1     -39.200  13.445  50.504  1.00  0.00     0.027 A 
HETATM    9  C8  UNL     1     -38.869  11.392  50.520  1.00  0.00     0.006 A 
HETATM   10  C9  UNL     1     -40.647  14.330  50.501  1.00  0.00     0.003 A 
HETATM   11  C10 UNL     1     -38.419  13.317  50.503  1.00  0.00     0.041 A 
HETATM   12  C11 UNL     1     -37.552  11.884  50.512  1.00  0.00     0.011 A 
HETATM   13  C12 UNL     1     -39.508  15.155  50.491  1.00  0.00     0.000 A 
HETATM   14  C13 UNL     1     -38.589  10.615  50.525  1.00  0.00     0.003 A 
HETATM   15  C14 UNL     1     -41.139  14.993  50.497  1.00  0.00     0.000 A 
HETATM   16  C15 UNL     1     -37.917  13.930  50.496  1.00  0.00     0.072 A 
HETATM   17  C16 UNL     1     -37.253  11.114  50.517  1.00  0.00     0.003 A 
HETATM   18  C17 UNL     1     -39.984  15.829  50.487  1.00  0.00     0.000 A 
HETATM   19  C18 UNL     1     -37.776  10.476  50.524  1.00  0.00     0.003 A 
HETATM   20  C19 UNL     1     -40.805  15.747  50.490  1.00  0.00     0.000 A 
HETATM   21  C20 UNL     1     -36.634  14.415  50.488  1.00  0.00     0.088 A 
ENDROOT
TORSDOF 16
ENDMDL
