MODEL 1
REMARK VINA RESULT:     237.0      0.000      0.000
REMARK  32 active torsions:
REMARK  status: ('A' for Active; 'I' for Inactive)
REMARK    1  A    between atoms: O1_1  and  C5_8 
REMARK    2  A    between atoms: O1_1  and  C10_13 
REMARK    3  A    between atoms: N1_2  and  C11_14 
REMARK    4  A    between atoms: N1_2  and  C16_19 
REMARK    5  A    between atoms: N2_3  and  C6_9 
REMARK    6  A    between atoms: N2_3  and  C11_14 
REMARK    7  A    between atoms: N2_3  and  C14_17 
REMARK    8  A    between atoms: N2_3  and  C15_18 
REMARK    9  A    between atoms: C2_5  and  C3_6 
REMARK   10  A    between atoms: C2_5  and  C5_8 
REMARK   11  A    between atoms: C2_5  and  C6_9 
REMARK   12  A    between atoms: C3_6  and  C7_10 
REMARK   13  A    between atoms: C3_6  and  C12_15 
REMARK   14  A    between atoms: C4_7  and  C6_9 
REMARK   15  A    between atoms: C4_7  and  C7_10 
REMARK   16  A    between atoms: C4_7  and  C10_13 
REMARK   17  A    between atoms: C4_7  and  C13_16 
REMARK   18  A    between atoms: C5_8  and  C7_10 
REMARK   19  A    between atoms: C6_9  and  C7_10 
REMARK   20  A    between atoms: C6_9  and  C11_14 
REMARK   21  A    between atoms: C6_9  and  C12_15 
REMARK   22  A    between atoms: C7_10  and  C9_12 
REMARK   23  A    between atoms: C7_10  and  C14_17 
REMARK   24  A    between atoms: C8_11  and  C9_12 
REMARK   25  A    between atoms: C8_11  and  C10_13 
REMARK   26  A    between atoms: C9_12  and  C10_13 
REMARK   27  A    between atoms: C11_14  and  C12_15 
REMARK   28  A    between atoms: C11_14  and  C13_16 
REMARK   29  A    between atoms: C11_14  and  C14_17 
REMARK   30  A    between atoms: C12_15  and  C14_17 
REMARK   31  A    between atoms: C14_17  and  C16_19 
REMARK   32  A    between atoms: C15_18  and  C16_19 
ROOT
HETATM    1  O1  UNL     1     -40.800  14.346  49.884  1.00  0.00     0.000 OA
HETATM    2  C1  UNL     1     -40.665  13.513  48.466  1.00  0.00     0.000 A 
HETATM    3  C2  UNL     1     -40.033  13.967  48.740  1.00  0.00     0.000 A 
HETATM    4  C3  UNL     1     -38.768  14.875  49.287  1.00  0.00     0.000 A 
HETATM    5  C4  UNL     1     -40.101  14.383  49.448  1.00  0.00     0.000 A 
HETATM    6  C5  UNL     1     -39.468  14.837  49.722  1.00  0.00     0.000 A 
HETATM    7  C6  UNL     1     -38.701  14.458  48.578  1.00  0.00     0.000 A 
HETATM    8  C7  UNL     1     -39.333  14.004  48.304  1.00  0.00     0.000 A 
HETATM    9  C8  UNL     1     -41.297  13.059  48.193  1.00  0.00     0.000 C 
HETATM   10  C9  UNL     1     -40.222  13.294  47.806  1.00  0.00     0.000 A 
HETATM   11  C10 UNL     1     -41.108  13.732  49.127  1.00  0.00     0.000 A 
HETATM   12  C11 UNL     1     -38.136  15.329  49.560  1.00  0.00     0.000 A 
HETATM   13  C13 UNL     1     -39.536  15.254  50.431  1.00  0.00     0.000 A 
HETATM   14  C14 UNL     1     -38.001  14.496  48.143  1.00  0.00     0.000 A 
ENDROOT
BRANCH   4  15
HETATM   15  C12 UNL     1     -37.436  15.366  49.125  1.00  0.00     0.000 A 
HETATM   16  N1  UNL     1     -36.703  15.652  49.373  1.00  0.00     0.000 N 
HETATM   17  C15 UNL     1     -36.244  15.792  48.702  1.00  0.00     0.000 A 
HETATM   18  N2  UNL     1     -37.430  15.330  48.301  1.00  0.00     0.000 N 
HETATM   19  C16 UNL     1     -36.694  15.593  48.040  1.00  0.00     0.000 A 
ENDBRANCH   4  15
TORSDOF 32
ENDMDL
