MODEL 1
REMARK VINA RESULT:      93.7      0.000      0.000
REMARK  19 active torsions:
REMARK  status: ('A' for Active; 'I' for Inactive)
REMARK    1  A    between atoms: O1_1  and  C3_5 
REMARK    2  A    between atoms: C1_3  and  C8_10 
REMARK    3  A    between atoms: C1_3  and  C9_11 
REMARK    4  A    between atoms: C2_4  and  C3_5 
REMARK    5  A    between atoms: C2_4  and  C5_7 
REMARK    6  A    between atoms: C2_4  and  C7_9 
REMARK    7  A    between atoms: C3_5  and  C4_6 
REMARK    8  A    between atoms: C3_5  and  C6_8 
REMARK    9  A    between atoms: C4_6  and  C5_7 
REMARK   10  A    between atoms: C5_7  and  C8_10 
REMARK   11  A    between atoms: C5_7  and  C9_11 
REMARK   12  A    between atoms: C6_8  and  C7_9 
REMARK   13  A    between atoms: C8_10  and  C13_15 
REMARK   14  A    between atoms: C9_11  and  C10_12 
REMARK   15  A    between atoms: C9_11  and  C12_14 
REMARK   16  A    between atoms: C10_12  and  C11_13 
REMARK   17  A    between atoms: C10_12  and  C13_15 
REMARK   18  A    between atoms: C11_13  and  C12_14 
REMARK   19  A    between atoms: C12_14  and  C13_15 
ROOT
HETATM    1  O1  UNL     1     -41.316  12.867  49.990  1.00  0.00     0.000 OA
HETATM    2  N1  UNL     1     -41.312  12.295  48.442  1.00  0.00     0.000 N 
HETATM    3  C1  UNL     1     -41.309  13.109  48.582  1.00  0.00     0.000 A 
HETATM    4  C2  UNL     1     -41.310  12.010  47.668  1.00  0.00     0.000 A 
HETATM    5  C3  UNL     1     -41.318  11.768  49.076  1.00  0.00     0.000 A 
HETATM    6  C4  UNL     1     -41.311  13.394  49.356  1.00  0.00     0.000 A 
HETATM    7  C5  UNL     1     -41.303  13.636  47.948  1.00  0.00     0.000 A 
HETATM    8  C6  UNL     1     -41.314  11.197  47.528  1.00  0.00     0.000 A 
HETATM    9  C7  UNL     1     -41.321  10.955  48.936  1.00  0.00     0.000 A 
HETATM   10  C8  UNL     1     -41.307  14.207  49.497  1.00  0.00     0.000 A 
HETATM   11  C9  UNL     1     -41.302  14.735  48.862  1.00  0.00     0.000 A 
HETATM   12  C10 UNL     1     -41.309  14.493  50.270  1.00  0.00     0.000 A 
HETATM   13  C11 UNL     1     -41.298  15.547  49.002  1.00  0.00     0.000 A 
HETATM   14  C12 UNL     1     -41.305  15.305  50.410  1.00  0.00     0.000 A 
HETATM   15  C13 UNL     1     -41.300  15.833  49.777  1.00  0.00     0.000 A 
ENDROOT
TORSDOF 19
ENDMDL
