MODEL 1
REMARK VINA RESULT:     128.8      0.000      0.000
REMARK  27 active torsions:
REMARK  status: ('A' for Active; 'I' for Inactive)
REMARK    1  A    between atoms: CL1_1  and  C11_16 
REMARK    2  A    between atoms: CL2_2  and  C2_7 
REMARK    3  A    between atoms: CL2_2  and  C8_13 
REMARK    4  A    between atoms: CL2_2  and  C12_17 
REMARK    5  A    between atoms: O2_4  and  N1_5 
REMARK    6  A    between atoms: C1_6  and  C3_8 
REMARK    7  A    between atoms: C1_6  and  C7_12 
REMARK    8  A    between atoms: C1_6  and  C8_13 
REMARK    9  A    between atoms: C1_6  and  C9_14 
REMARK   10  A    between atoms: C2_7  and  C6_11 
REMARK   11  A    between atoms: C2_7  and  C13_18 
REMARK   12  A    between atoms: C2_7  and  C14_19 
REMARK   13  A    between atoms: C3_8  and  C6_11 
REMARK   14  A    between atoms: C3_8  and  C9_14 
REMARK   15  A    between atoms: C4_9  and  C6_11 
REMARK   16  A    between atoms: C4_9  and  C9_14 
REMARK   17  A    between atoms: C5_10  and  C8_13 
REMARK   18  A    between atoms: C5_10  and  C12_17 
REMARK   19  A    between atoms: C6_11  and  C7_12 
REMARK   20  A    between atoms: C6_11  and  C8_13 
REMARK   21  A    between atoms: C7_12  and  C9_14 
REMARK   22  A    between atoms: C7_12  and  C11_16 
REMARK   23  A    between atoms: C8_13  and  C10_15 
REMARK   24  A    between atoms: C8_13  and  C13_18 
REMARK   25  A    between atoms: C10_15  and  C12_17 
REMARK   26  A    between atoms: C10_15  and  C14_19 
REMARK   27  A    between atoms: C12_17  and  C13_18 
ROOT
HETATM    1 CL1  UNL     1     -41.297  12.245  50.036  1.00  0.00    -0.275 Cl
HETATM    2 CL2  UNL     1     -41.314  13.693  47.571  1.00  0.00    -0.302 Cl
HETATM    3  O1  UNL     1     -41.316  15.815  50.475  1.00  0.00    -0.361 OA
HETATM    4  O2  UNL     1     -41.308  14.386  50.464  1.00  0.00     0.000 OA
HETATM    5  N1  UNL     1     -41.308  13.680  49.221  1.00  0.00     0.000 N 
HETATM    6  C1  UNL     1     -41.305  12.969  48.804  1.00  0.00     0.049 A 
HETATM    7  C2  UNL     1     -41.314  14.398  48.815  1.00  0.00     0.065 A 
HETATM    8  C3  UNL     1     -41.297  11.541  48.793  1.00  0.00     0.063 A 
HETATM    9  C4  UNL     1     -41.300  12.252  49.211  1.00  0.00     0.063 A 
HETATM   10  C5  UNL     1     -41.316  15.110  49.233  1.00  0.00     0.093 A 
HETATM   11  C6  UNL     1     -41.309  12.975  47.979  1.00  0.00     0.055 A 
HETATM   12  C7  UNL     1     -41.300  11.546  47.968  1.00  0.00     0.063 A 
HETATM   13  C8  UNL     1     -41.317  14.404  47.989  1.00  0.00     0.057 A 
HETATM   14  C9  UNL     1     -41.306  12.264  47.562  1.00  0.00     0.054 A 
HETATM   15  C10 UNL     1     -41.322  15.827  48.825  1.00  0.00     0.074 A 
HETATM   16  C11 UNL     1     -41.292  10.823  49.200  1.00  0.00     0.063 A 
HETATM   17  C12 UNL     1     -41.322  15.122  47.583  1.00  0.00     0.054 A 
HETATM   18  C13 UNL     1     -41.325  15.833  48.000  1.00  0.00     0.059 A 
HETATM   19  C14 UNL     1     -41.313  15.103  50.057  1.00  0.00     0.127 A 
ENDROOT
TORSDOF 27
ENDMDL
