MODEL 1
REMARK VINA RESULT:     413.2      0.000      0.000
REMARK  27 active torsions:
REMARK  status: ('A' for Active; 'I' for Inactive)
REMARK    1  A    between atoms: O1_1  and  C14_18 
REMARK    2  A    between atoms: O2_2  and  C11_15 
REMARK    3  A    between atoms: O3_3  and  C15_19 
REMARK    4  A    between atoms: C1_5  and  C7_11 
REMARK    5  A    between atoms: C2_6  and  C3_7 
REMARK    6  A    between atoms: C2_6  and  C4_8 
REMARK    7  A    between atoms: C3_7  and  C4_8 
REMARK    8  A    between atoms: C3_7  and  C6_10 
REMARK    9  A    between atoms: C4_8  and  C5_9 
REMARK   10  A    between atoms: C8_12  and  C12_16 
REMARK   11  A    between atoms: C8_12  and  C13_17 
REMARK   12  A    between atoms: C9_13  and  C14_18 
REMARK   13  A    between atoms: C9_13  and  C15_19 
REMARK   14  A    between atoms: C10_14  and  C11_15 
REMARK   15  A    between atoms: C10_14  and  C13_17 
REMARK   16  A    between atoms: C10_14  and  C16_20 
REMARK   17  A    between atoms: C11_15  and  C13_17 
REMARK   18  A    between atoms: C11_15  and  C12_16 
REMARK   19  A    between atoms: C11_15  and  C17_21 
REMARK   20  A    between atoms: C12_16  and  C14_18 
REMARK   21  A    between atoms: C13_17  and  C15_19 
REMARK   22  A    between atoms: C14_18  and  C20_24 
REMARK   23  A    between atoms: C15_19  and  C21_25 
REMARK   24  A    between atoms: C16_20  and  C18_22 
REMARK   25  A    between atoms: C17_21  and  C19_23 
REMARK   26  A    between atoms: C18_22  and  C20_24 
REMARK   27  A    between atoms: C19_23  and  C21_25 
ROOT
HETATM    1  O1  UNL     1     -37.739  13.094  49.105  1.00  0.00     0.000 OA
HETATM    2  O2  UNL     1     -39.109  15.448  50.301  1.00  0.00     0.000 OA
HETATM    3  O3  UNL     1     -39.124  12.744  49.063  1.00  0.00     0.000 OA
HETATM    4  N1  UNL     1     -36.564  11.462  48.256  1.00  0.00     0.000 N 
HETATM    5  C1  UNL     1     -36.757  12.184  48.604  1.00  0.00     0.000 A 
HETATM    6  C2  UNL     1     -36.371  10.739  47.909  1.00  0.00     0.000 A 
HETATM    7  C3  UNL     1     -35.765  11.664  48.281  1.00  0.00     0.000 A 
HETATM    8  C4  UNL     1     -37.364  11.260  48.232  1.00  0.00     0.000 A 
HETATM    9  C5  UNL     1     -37.546  12.371  48.757  1.00  0.00     0.000 A 
HETATM   10  C6  UNL     1     -35.581  10.553  47.756  1.00  0.00     0.000 A 
HETATM   11  C7  UNL     1     -35.532  12.391  48.594  1.00  0.00     0.000 A 
HETATM   12  C8  UNL     1     -38.722  14.003  49.605  1.00  0.00     0.000 A 
HETATM   13  C9  UNL     1     -38.529  13.281  49.258  1.00  0.00     0.000 A 
HETATM   14  C10 UNL     1     -38.126  14.540  49.800  1.00  0.00     0.000 A 
HETATM   15  C11 UNL     1     -39.511  14.189  49.758  1.00  0.00     0.000 A 
HETATM   16  C12 UNL     1     -38.319  15.262  50.148  1.00  0.00     0.000 A 
HETATM   17  C13 UNL     1     -39.704  14.912  50.106  1.00  0.00     0.000 A 
HETATM   18  C14 UNL     1     -37.308  14.334  49.636  1.00  0.00     0.000 A 
HETATM   19  C15 UNL     1     -40.123  13.622  49.551  1.00  0.00     0.000 A 
HETATM   20  C16 UNL     1     -37.708  15.829  50.356  1.00  0.00     0.000 A 
HETATM   21  C17 UNL     1     -40.522  15.118  50.270  1.00  0.00     0.000 A 
HETATM   22  C18 UNL     1     -36.683  14.888  49.837  1.00  0.00     0.000 A 
HETATM   23  C19 UNL     1     -40.946  13.811  49.707  1.00  0.00     0.000 A 
HETATM   24  C20 UNL     1     -36.884  15.641  50.199  1.00  0.00     0.000 A 
HETATM   25  C21 UNL     1     -41.147  14.563  50.069  1.00  0.00     0.000 A 
ENDROOT
TORSDOF 27
ENDMDL
