MODEL 1
REMARK VINA RESULT:      64.0      0.000      0.000
REMARK  11 active torsions:
REMARK  status: ('A' for Active; 'I' for Inactive)
REMARK    1  A    between atoms: O4_4  and  C3_7 
REMARK    2  A    between atoms: C1_5  and  C6_10 
REMARK    3  A    between atoms: C1_5  and  C7_11 
REMARK    4  A    between atoms: C2_6  and  C3_7 
REMARK    5  A    between atoms: C2_6  and  C5_9 
REMARK    6  A    between atoms: C3_7  and  C4_8 
REMARK    7  A    between atoms: C3_7  and  C6_10 
REMARK    8  A    between atoms: C3_7  and  C8_12 
REMARK    9  A    between atoms: C4_8  and  C5_9 
REMARK   10  A    between atoms: C4_8  and  C7_11 
REMARK   11  A    between atoms: C5_9  and  C6_10 
ROOT
HETATM    1  O1  UNL     1     -39.154  15.568  49.300  1.00  0.00     0.000 OA
HETATM    2  O2  UNL     1     -41.310  15.575  50.516  1.00  0.00    -0.327 OA
HETATM    3  O3  UNL     1     -39.906  15.837  50.486  1.00  0.00    -0.327 OA
HETATM    4  O4  UNL     1     -38.403  15.299  48.116  1.00  0.00     0.000 OA
HETATM    5  C1  UNL     1     -39.840  15.304  48.926  1.00  0.00     0.081 A 
HETATM    6  C2  UNL     1     -40.559  15.306  49.331  1.00  0.00     0.117 A 
HETATM    7  C3  UNL     1     -39.807  15.037  48.146  1.00  0.00     0.053 A 
HETATM    8  C4  UNL     1     -41.244  15.041  48.956  1.00  0.00     0.088 A 
HETATM    9  C5  UNL     1     -40.493  14.772  47.771  1.00  0.00     0.057 A 
HETATM   10  C6  UNL     1     -41.211  14.775  48.176  1.00  0.00     0.057 A 
HETATM   11  C7  UNL     1     -40.592  15.573  50.111  1.00  0.00     0.187 A 
HETATM   12  C8  UNL     1     -38.436  15.566  48.896  1.00  0.00     0.013 A 
HETATM   13  C9  UNL     1     -37.750  15.830  49.270  1.00  0.00     0.001 A 
ENDROOT
TORSDOF 11
ENDMDL
