MODEL 1
REMARK VINA RESULT:       0.2      0.000      0.000
REMARK  0 active torsions:
REMARK  status: ('A' for Active; 'I' for Inactive)
ROOT
HETATM    1  N1  UNL     1     -41.275  15.838  50.528  1.00  0.00     0.000 N 
HETATM    2  N2  UNL     1     -41.282  15.819  49.703  1.00  0.00     0.000 N 
ENDROOT
TORSDOF 0
ENDMDL
MODEL 2
REMARK VINA RESULT:       1.7      2.159      2.226
REMARK  0 active torsions:
REMARK  status: ('A' for Active; 'I' for Inactive)
ROOT
HETATM    1  N1  UNL     1     -39.566  15.838  50.404  1.00  0.00     0.000 N 
HETATM    2  N2  UNL     1     -38.752  15.717  50.456  1.00  0.00     0.000 N 
ENDROOT
TORSDOF 0
ENDMDL
