MODEL 1
REMARK VINA RESULT:      29.0      0.000      0.000
REMARK  10 active torsions:
REMARK  status: ('A' for Active; 'I' for Inactive)
REMARK    1  A    between atoms: O1_1  and  C1_5 
REMARK    2  A    between atoms: N1_2  and  C1_5 
REMARK    3  A    between atoms: N2_3  and  C3_7 
REMARK    4  A    between atoms: C1_5  and  C4_8 
REMARK    5  A    between atoms: C1_5  and  C6_10 
REMARK    6  A    between atoms: C2_6  and  C4_8 
REMARK    7  A    between atoms: C2_6  and  C6_10 
REMARK    8  A    between atoms: C3_7  and  C6_10 
REMARK    9  A    between atoms: C3_7  and  C4_8 
REMARK   10  A    between atoms: C3_7  and  C5_9 
ROOT
HETATM    1  O1  UNL     1     -38.569  15.417  49.033  1.00  0.00     0.000 OA
HETATM    2  N1  UNL     1     -38.628  15.757  50.419  1.00  0.00     0.272 N 
HETATM    3  N3  UNL     1     -37.808  15.837  50.435  1.00  0.00    -0.043 NA
HETATM    4  C4  UNL     1     -39.009  15.547  49.718  1.00  0.00     0.369 A 
ENDROOT
BRANCH   1   5
HETATM    5  C1  UNL     1     -39.830  15.467  49.703  1.00  0.00     0.321 A 
HETATM    6  C2  UNL     1     -40.345  15.838  50.231  1.00  0.00     0.277 A 
HETATM    7  C5  UNL     1     -41.091  15.518  50.373  1.00  0.00     0.261 A 
HETATM    8  N2  UNL     1     -41.323  14.826  49.987  1.00  0.00     0.006 N 
HETATM    9  C3  UNL     1     -40.063  14.776  49.317  1.00  0.00     0.277 A 
HETATM   10  C6  UNL     1     -40.810  14.456  49.459  1.00  0.00     0.261 A 
ENDBRANCH   1   5
TORSDOF 10
ENDMDL
