MODEL 1
REMARK VINA RESULT:     241.3      0.000      0.000
REMARK WARNING: 32 MAX_TORS EXCEEDED!!!
REMARK  42 active torsions:
REMARK  status: ('A' for Active; 'I' for Inactive)
REMARK    1  A    between atoms: O1_1  and  C6_10 
REMARK    2  A    between atoms: O2_2  and  C11_15 
REMARK    3  A    between atoms: O3_3  and  C17_21 
REMARK    4  A    between atoms: C1_5  and  C8_12 
REMARK    5  A    between atoms: C1_5  and  C11_15 
REMARK    6  A    between atoms: C1_5  and  C12_16 
REMARK    7  A    between atoms: C1_5  and  C13_17 
REMARK    8  A    between atoms: C2_6  and  C8_12 
REMARK    9  A    between atoms: C2_6  and  C9_13 
REMARK   10  A    between atoms: C2_6  and  C10_14 
REMARK   11  A    between atoms: C2_6  and  C12_16 
REMARK   12  A    between atoms: C3_7  and  C5_9 
REMARK   13  A    between atoms: C3_7  and  C6_10 
REMARK   14  A    between atoms: C3_7  and  C7_11 
REMARK   15  A    between atoms: C3_7  and  C10_14 
REMARK   16  A    between atoms: C4_8  and  C5_9 
REMARK   17  A    between atoms: C4_8  and  C6_10 
REMARK   18  A    between atoms: C4_8  and  C7_11 
REMARK   19  A    between atoms: C4_8  and  C11_15 
REMARK   20  A    between atoms: C5_9  and  C9_13 
REMARK   21  A    between atoms: C5_9  and  C6_10 
REMARK   22  A    between atoms: C5_9  and  C8_12 
REMARK   23  A    between atoms: C5_9  and  C10_14 
REMARK   24  A    between atoms: C5_9  and  C13_17 
REMARK   25  A    between atoms: C5_9  and  C15_19 
REMARK   26  A    between atoms: C6_10  and  C13_17 
REMARK   27  A    between atoms: C6_10  and  C8_12 
REMARK   28  A    between atoms: C6_10  and  C9_13 
REMARK   29  A    between atoms: C6_10  and  C16_20 
REMARK   30  A    between atoms: C6_10  and  C17_21 
REMARK   31  A    between atoms: C7_11  and  C12_16 
REMARK   32  A    between atoms: C8_12  and  C10_14 
REMARK   33  A    between atoms: C8_12  and  C9_13 
REMARK   34  A    between atoms: C8_12  and  C15_19 
REMARK   35  A    between atoms: C9_13  and  C10_14 
REMARK   36  A    between atoms: C10_14  and  C13_17 
REMARK   37  A    between atoms: C10_14  and  C16_20 
REMARK   38  A    between atoms: C11_15  and  C12_16 
REMARK   39  A    between atoms: C13_17  and  C15_19 
REMARK   40  A    between atoms: C13_17  and  C17_21 
REMARK   41  A    between atoms: C15_19  and  C16_20 
REMARK   42  A    between atoms: C16_20  and  C17_21 
ROOT
HETATM    1  O1  UNL     1     -39.552  13.401  50.373  1.00  0.00     0.000 OA
HETATM    2  O2  UNL     1     -38.541  11.516  50.313  1.00  0.00     0.000 OA
HETATM    3  O3  UNL     1     -40.846  14.987  50.412  1.00  0.00     0.000 OA
HETATM    4  N1  UNL     1     -36.232  14.556  50.501  1.00  0.00     0.000 N 
HETATM    5  C1  UNL     1     -38.245  13.718  50.417  1.00  0.00     0.000 A 
HETATM    6  C2  UNL     1     -37.422  13.768  50.438  1.00  0.00     0.000 A 
HETATM    7  C3  UNL     1     -37.055  14.506  50.479  1.00  0.00     0.000 A 
HETATM    8  C4  UNL     1     -38.612  12.979  50.376  1.00  0.00     0.000 A 
HETATM    9  C5  UNL     1     -38.183  14.484  50.452  1.00  0.00     0.000 A 
HETATM   10  C6  UNL     1     -38.701  14.405  50.437  1.00  0.00     0.000 A 
HETATM   11  C7  UNL     1     -36.966  13.081  50.419  1.00  0.00     0.000 A 
HETATM   12  C8  UNL     1     -37.511  15.193  50.499  1.00  0.00     0.000 A 
HETATM   13  C9  UNL     1     -37.206  15.132  50.503  1.00  0.00     0.000 A 
HETATM   14  C10 UNL     1     -38.335  15.142  50.477  1.00  0.00     0.000 A 
HETATM   15  C11 UNL     1     -37.332  12.343  50.378  1.00  0.00     0.000 A 
HETATM   16  C12 UNL     1     -38.156  12.292  50.356  1.00  0.00     0.000 A 
HETATM   17  C13 UNL     1     -39.525  14.353  50.415  1.00  0.00     0.000 A 
HETATM   18  C14 UNL     1     -35.388  14.354  50.511  1.00  0.00     0.000 A 
HETATM   19  C15 UNL     1     -38.791  15.829  50.497  1.00  0.00     0.000 A 
HETATM   20  C16 UNL     1     -39.981  15.040  50.435  1.00  0.00     0.000 A 
HETATM   21  C17 UNL     1     -39.614  15.779  50.476  1.00  0.00     0.000 A 
HETATM   22  C18 UNL     1     -41.327  15.710  50.433  1.00  0.00     0.000 A 
ENDROOT
TORSDOF 42
ENDMDL
