MODEL 1
REMARK VINA RESULT:     482.0      0.000      0.000
REMARK WARNING: 32 MAX_TORS EXCEEDED!!!
REMARK  41 active torsions:
REMARK  status: ('A' for Active; 'I' for Inactive)
REMARK    1  A    between atoms: O1_1  and  C12_16 
REMARK    2  A    between atoms: O2_2  and  C9_13 
REMARK    3  A    between atoms: N1_4  and  C18_22 
REMARK    4  A    between atoms: N1_4  and  C19_23 
REMARK    5  A    between atoms: C1_5  and  C4_8 
REMARK    6  A    between atoms: C1_5  and  C8_12 
REMARK    7  A    between atoms: C1_5  and  C9_13 
REMARK    8  A    between atoms: C1_5  and  C16_20 
REMARK    9  A    between atoms: C2_6  and  C8_12 
REMARK   10  A    between atoms: C2_6  and  C9_13 
REMARK   11  A    between atoms: C3_7  and  C6_10 
REMARK   12  A    between atoms: C3_7  and  C7_11 
REMARK   13  A    between atoms: C4_8  and  C6_10 
REMARK   14  A    between atoms: C4_8  and  C11_15 
REMARK   15  A    between atoms: C5_9  and  C6_10 
REMARK   16  A    between atoms: C5_9  and  C7_11 
REMARK   17  A    between atoms: C5_9  and  C12_16 
REMARK   18  A    between atoms: C6_10  and  C8_12 
REMARK   19  A    between atoms: C6_10  and  C12_16 
REMARK   20  A    between atoms: C6_10  and  C16_20 
REMARK   21  A    between atoms: C6_10  and  C17_21 
REMARK   22  A    between atoms: C7_11  and  C9_13 
REMARK   23  A    between atoms: C8_12  and  C10_14 
REMARK   24  A    between atoms: C8_12  and  C12_16 
REMARK   25  A    between atoms: C8_12  and  C17_21 
REMARK   26  A    between atoms: C9_13  and  C16_20 
REMARK   27  A    between atoms: C9_13  and  C21_25 
REMARK   28  A    between atoms: C10_14  and  C13_17 
REMARK   29  A    between atoms: C11_15  and  C14_18 
REMARK   30  A    between atoms: C12_16  and  C16_20 
REMARK   31  A    between atoms: C12_16  and  C22_26 
REMARK   32  A    between atoms: C13_17  and  C14_18 
REMARK   33  A    between atoms: C13_17  and  C19_23 
REMARK   34  A    between atoms: C14_18  and  C15_19 
REMARK   35  A    between atoms: C14_18  and  C20_24 
REMARK   36  A    between atoms: C15_19  and  C20_24 
REMARK   37  A    between atoms: C16_20  and  C17_21 
REMARK   38  A    between atoms: C17_21  and  C22_26 
REMARK   39  A    between atoms: C18_22  and  C20_24 
REMARK   40  A    between atoms: C18_22  and  C19_23 
REMARK   41  A    between atoms: C19_23  and  C20_24 
ROOT
HETATM    1  O1  UNL     1     -40.184  15.191  49.553  1.00  0.00     0.000 OA
HETATM    2  O2  UNL     1     -41.032  14.455  50.437  1.00  0.00     0.000 OA
HETATM    3  C1  UNL     1     -39.140  14.011  49.159  1.00  0.00     0.001 A 
HETATM    4  C2  UNL     1     -39.266  13.271  49.501  1.00  0.00     0.001 A 
HETATM    5  C3  UNL     1     -38.760  12.643  49.328  1.00  0.00     0.006 A 
HETATM    6  C4  UNL     1     -38.125  12.757  48.812  1.00  0.00     0.014 A 
HETATM    7  C5  UNL     1     -39.725  14.517  49.432  1.00  0.00     0.000 A 
HETATM    8  C6  UNL     1     -38.506  14.123  48.644  1.00  0.00     0.001 A 
HETATM    9  C7  UNL     1     -39.929  13.326  49.982  1.00  0.00     0.000 A 
HETATM   10  C8  UNL     1     -37.998  13.496  48.470  1.00  0.00     0.004 A 
HETATM   11  C9  UNL     1     -40.211  14.094  49.939  1.00  0.00     0.000 A 
HETATM   12  C10 UNL     1     -37.590  12.112  48.624  1.00  0.00     0.062 A 
HETATM   13  C11 UNL     1     -38.902  11.878  49.691  1.00  0.00     0.008 A 
HETATM   14  C12 UNL     1     -39.013  14.751  48.817  1.00  0.00     0.000 A 
HETATM   15  C13 UNL     1     -38.377  11.221  49.514  1.00  0.00     0.038 A 
HETATM   16  C14 UNL     1     -37.717  11.338  48.977  1.00  0.00     0.076 A 
HETATM   17  C15 UNL     1     -36.907  12.254  48.063  1.00  0.00     0.086 A 
HETATM   18  C16 UNL     1     -39.401  15.129  48.984  1.00  0.00     0.000 A 
HETATM   19  C17 UNL     1     -38.379  14.863  48.302  1.00  0.00     0.000 A 
HETATM   20  C18 UNL     1     -36.350  11.582  47.866  1.00  0.00     0.245 A 
HETATM   21  C19 UNL     1     -37.170  10.654  48.793  1.00  0.00     0.221 A 
HETATM   22  C21 UNL     1     -40.837  15.160  50.056  1.00  0.00     0.000 A 
HETATM   23  C22 UNL     1     -39.078  15.743  48.536  1.00  0.00     0.000 A 
HETATM   24  C23 UNL     1     -41.297  15.835  50.177  1.00  0.00     0.000 A 
ENDROOT
BRANCH  16  25
HETATM   25  C20 UNL     1     -36.482  10.776  48.234  1.00  0.00     0.281 A 
HETATM   26  N1  UNL     1     -35.749  10.888  47.873  1.00  0.00     0.112 N 
HETATM   27  O3  UNL     1     -35.346  10.246  47.548  1.00  0.00    -0.155 OA
ENDBRANCH  16  25
TORSDOF 41
ENDMDL
