MODEL 1
REMARK VINA RESULT:     443.3      0.000      0.000
REMARK WARNING: 32 MAX_TORS EXCEEDED!!!
REMARK  42 active torsions:
REMARK  status: ('A' for Active; 'I' for Inactive)
REMARK    1  A    between atoms: O1_1  and  C6_11 
REMARK    2  A    between atoms: O1_1  and  C13_18 
REMARK    3  A    between atoms: O2_2  and  C6_11 
REMARK    4  A    between atoms: O2_2  and  C16_21 
REMARK    5  A    between atoms: O2_2  and  C17_22 
REMARK    6  A    between atoms: O3_3  and  C20_25 
REMARK    7  A    between atoms: O5_5  and  C21_26 
REMARK    8  A    between atoms: C1_6  and  C4_9 
REMARK    9  A    between atoms: C1_6  and  C7_12 
REMARK   10  A    between atoms: C1_6  and  C15_20 
REMARK   11  A    between atoms: C2_7  and  C7_12 
REMARK   12  A    between atoms: C2_7  and  C10_15 
REMARK   13  A    between atoms: C3_8  and  C6_11 
REMARK   14  A    between atoms: C3_8  and  C7_12 
REMARK   15  A    between atoms: C3_8  and  C8_13 
REMARK   16  A    between atoms: C3_8  and  C16_21 
REMARK   17  A    between atoms: C4_9  and  C6_11 
REMARK   18  A    between atoms: C4_9  and  C11_16 
REMARK   19  A    between atoms: C5_10  and  C6_11 
REMARK   20  A    between atoms: C5_10  and  C8_13 
REMARK   21  A    between atoms: C5_10  and  C13_18 
REMARK   22  A    between atoms: C5_10  and  C20_25 
REMARK   23  A    between atoms: C6_11  and  C7_12 
REMARK   24  A    between atoms: C6_11  and  C13_18 
REMARK   25  A    between atoms: C7_12  and  C9_14 
REMARK   26  A    between atoms: C7_12  and  C13_18 
REMARK   27  A    between atoms: C7_12  and  C16_21 
REMARK   28  A    between atoms: C8_13  and  C10_15 
REMARK   29  A    between atoms: C9_14  and  C12_17 
REMARK   30  A    between atoms: C10_15  and  C15_20 
REMARK   31  A    between atoms: C10_15  and  C20_25 
REMARK   32  A    between atoms: C11_16  and  C14_19 
REMARK   33  A    between atoms: C12_17  and  C14_19 
REMARK   34  A    between atoms: C12_17  and  C19_24 
REMARK   35  A    between atoms: C13_18  and  C15_20 
REMARK   36  A    between atoms: C14_19  and  C17_22 
REMARK   37  A    between atoms: C14_19  and  C18_23 
REMARK   38  A    between atoms: C14_19  and  C22_27 
REMARK   39  A    between atoms: C16_21  and  C17_22 
REMARK   40  A    between atoms: C17_22  and  C22_27 
REMARK   41  A    between atoms: C19_24  and  C21_26 
REMARK   42  A    between atoms: C21_26  and  C22_27 
ROOT
HETATM    1  O1  UNL     1     -37.426  11.112  48.968  1.00  0.00     0.000 OA
HETATM    2  O2  UNL     1     -39.412  12.598  47.800  1.00  0.00     0.000 OA
HETATM    3  O3  UNL     1     -36.779  10.389  49.139  1.00  0.00     0.000 OA
HETATM    4  O4  UNL     1     -35.735  10.364  50.417  1.00  0.00    -0.363 OA
HETATM    5  O5  UNL     1     -41.306  15.780  48.233  1.00  0.00     0.000 OA
HETATM    6  C1  UNL     1     -37.886  12.130  49.288  1.00  0.00     0.021 A 
HETATM    7  C2  UNL     1     -37.948  12.785  49.785  1.00  0.00     0.011 A 
HETATM    8  C3  UNL     1     -38.497  13.378  49.622  1.00  0.00     0.003 A 
HETATM    9  C4  UNL     1     -38.986  13.315  48.959  1.00  0.00     0.003 A 
HETATM   10  C5  UNL     1     -37.300  11.641  49.588  1.00  0.00     0.039 A 
HETATM   11  C6  UNL     1     -38.374  12.068  48.626  1.00  0.00     0.008 A 
HETATM   12  C7  UNL     1     -38.924  12.660  48.461  1.00  0.00     0.004 A 
HETATM   13  C8  UNL     1     -37.399  12.696  50.389  1.00  0.00     0.010 A 
HETATM   14  C9  UNL     1     -39.562  13.926  48.778  1.00  0.00     0.000 A 
HETATM   15  C10 UNL     1     -37.000  11.990  50.267  1.00  0.00     0.044 A 
HETATM   16  C11 UNL     1     -38.552  14.055  50.147  1.00  0.00     0.001 A 
HETATM   17  C12 UNL     1     -39.123  14.676  49.981  1.00  0.00     0.000 A 
HETATM   18  C13 UNL     1     -37.825  11.475  48.790  1.00  0.00     0.024 C 
HETATM   19  C14 UNL     1     -39.631  14.611  49.292  1.00  0.00     0.000 A 
HETATM   20  C15 UNL     1     -36.779  11.009  49.683  1.00  0.00     0.081 A 
HETATM   21  C16 UNL     1     -39.496  13.269  48.284  1.00  0.00     0.000 A 
HETATM   22  C17 UNL     1     -40.083  13.840  48.054  1.00  0.00     0.000 A 
HETATM   23  C18 UNL     1     -39.182  15.330  50.480  1.00  0.00     0.000 A 
HETATM   24  C19 UNL     1     -40.226  15.257  49.118  1.00  0.00     0.000 A 
HETATM   25  C20 UNL     1     -36.257  10.997  50.322  1.00  0.00     0.115 A 
HETATM   26  C21 UNL     1     -40.684  14.476  47.865  1.00  0.00     0.000 A 
HETATM   27  C22 UNL     1     -40.756  15.190  48.400  1.00  0.00     0.000 A 
ENDROOT
TORSDOF 42
ENDMDL
