MODEL 1
REMARK VINA RESULT:     237.1      0.000      0.000
REMARK  18 active torsions:
REMARK  status: ('A' for Active; 'I' for Inactive)
REMARK    1  A    between atoms: O2_2  and  C4_8 
REMARK    2  A    between atoms: N2_4  and  C10_14 
REMARK    3  A    between atoms: C2_6  and  C4_8 
REMARK    4  A    between atoms: C2_6  and  C8_12 
REMARK    5  A    between atoms: C4_8  and  C11_15 
REMARK    6  A    between atoms: C5_9  and  C11_15 
REMARK    7  A    between atoms: C5_9  and  C12_16 
REMARK    8  A    between atoms: C5_9  and  C13_17 
REMARK    9  A    between atoms: C5_9  and  C14_18 
REMARK   10  A    between atoms: C6_10  and  C9_13 
REMARK   11  A    between atoms: C6_10  and  C12_16 
REMARK   12  A    between atoms: C7_11  and  C8_12 
REMARK   13  A    between atoms: C9_13  and  C10_14 
REMARK   14  A    between atoms: C9_13  and  C11_15 
REMARK   15  A    between atoms: C9_13  and  C14_18 
REMARK   16  A    between atoms: C10_14  and  C13_17 
REMARK   17  A    between atoms: C11_15  and  C12_16 
REMARK   18  A    between atoms: C12_16  and  C14_18 
ROOT
HETATM    1  O1  UNL     1     -38.996  14.328  49.728  1.00  0.00     0.000 OA
HETATM    2  O2  UNL     1     -37.642  13.829  50.528  1.00  0.00     0.000 OA
HETATM    3  N1  UNL     1     -36.552  12.848  49.772  1.00  0.00     0.000 N 
HETATM    4  N2  UNL     1     -41.328  15.792  49.816  1.00  0.00     0.000 N 
HETATM    5  C1  UNL     1     -37.774  13.588  49.750  1.00  0.00     0.000 A 
HETATM    6  C2  UNL     1     -37.229  13.097  49.372  1.00  0.00     0.000 A 
HETATM    7  C3  UNL     1     -36.007  12.358  49.394  1.00  0.00     0.000 A 
HETATM    8  C4  UNL     1     -38.452  13.837  49.350  1.00  0.00     0.000 A 
HETATM    9  C5  UNL     1     -40.219  15.067  49.706  1.00  0.00     0.000 A 
HETATM   10  C6  UNL     1     -39.674  14.577  49.329  1.00  0.00     0.000 A 
HETATM   11  C7  UNL     1     -35.330  12.109  49.794  1.00  0.00     0.000 A 
HETATM   12  C8  UNL     1     -36.139  12.116  48.616  1.00  0.00     0.000 A 
HETATM   13  C9  UNL     1     -40.896  15.317  49.306  1.00  0.00     0.000 A 
HETATM   14  C10 UNL     1     -40.238  15.391  50.460  1.00  0.00     0.000 A 
HETATM   15  C11 UNL     1     -39.806  14.336  48.550  1.00  0.00     0.000 A 
HETATM   16  C12 UNL     1     -41.028  15.075  48.529  1.00  0.00     0.000 A 
HETATM   17  C13 UNL     1     -40.922  15.839  50.528  1.00  0.00     0.000 A 
HETATM   18  C14 UNL     1     -40.483  14.585  48.150  1.00  0.00     0.000 A 
ENDROOT
TORSDOF 18
ENDMDL
