MODEL 1
REMARK VINA RESULT:     262.3      0.000      0.000
REMARK  26 active torsions:
REMARK  status: ('A' for Active; 'I' for Inactive)
REMARK    1  A    between atoms: O1_1  and  C1_4 
REMARK    2  A    between atoms: O1_1  and  C9_12 
REMARK    3  A    between atoms: O1_1  and  C13_16 
REMARK    4  A    between atoms: N1_2  and  C4_7 
REMARK    5  A    between atoms: N1_2  and  C6_9 
REMARK    6  A    between atoms: N2_3  and  C1_4 
REMARK    7  A    between atoms: N2_3  and  C7_10 
REMARK    8  A    between atoms: C1_4  and  C6_9 
REMARK    9  A    between atoms: C1_4  and  C4_7 
REMARK   10  A    between atoms: C2_5  and  C5_8 
REMARK   11  A    between atoms: C2_5  and  C6_9 
REMARK   12  A    between atoms: C3_6  and  C5_8 
REMARK   13  A    between atoms: C4_7  and  C5_8 
REMARK   14  A    between atoms: C5_8  and  C7_10 
REMARK   15  A    between atoms: C6_9  and  C7_10 
REMARK   16  A    between atoms: C6_9  and  C9_12 
REMARK   17  A    between atoms: C6_9  and  C13_16 
REMARK   18  A    between atoms: C8_11  and  C15_18 
REMARK   19  A    between atoms: C9_12  and  C10_13 
REMARK   20  A    between atoms: C9_12  and  C12_15 
REMARK   21  A    between atoms: C10_13  and  C11_14 
REMARK   22  A    between atoms: C10_13  and  C15_18 
REMARK   23  A    between atoms: C11_14  and  C12_15 
REMARK   24  A    between atoms: C11_14  and  C13_16 
REMARK   25  A    between atoms: C12_15  and  C15_18 
REMARK   26  A    between atoms: C12_15  and  C14_17 
ROOT
HETATM    1  O1  UNL     1     -39.220  12.638  49.885  1.00  0.00     0.000 OA
HETATM    2  N2  UNL     1     -40.130  12.897  48.813  1.00  0.00     0.000 N 
HETATM    3  C6  UNL     1     -39.588  13.169  49.372  1.00  0.00     0.000 A 
HETATM    4  C8  UNL     1     -40.305  12.092  48.767  1.00  0.00     0.000 A 
HETATM    5  C9  UNL     1     -39.939  11.560  49.280  1.00  0.00     0.000 A 
HETATM    6  C10 UNL     1     -40.847  11.819  48.209  1.00  0.00     0.000 A 
HETATM    7  C11 UNL     1     -40.114  10.755  49.233  1.00  0.00     0.000 A 
HETATM    8  C12 UNL     1     -41.023  11.014  48.163  1.00  0.00     0.000 A 
HETATM    9  C13 UNL     1     -39.396  11.833  49.839  1.00  0.00     0.000 A 
HETATM   10  C14 UNL     1     -41.215  12.352  47.696  1.00  0.00     0.000 A 
HETATM   11  C15 UNL     1     -40.656  10.483  48.675  1.00  0.00     0.000 A 
ENDROOT
BRANCH   1  12
HETATM   12  C1  UNL     1     -39.413  13.974  49.418  1.00  0.00     0.000 A 
HETATM   13  N1  UNL     1     -39.190  14.599  48.928  1.00  0.00     0.000 N 
HETATM   14  C5  UNL     1     -39.606  15.311  48.952  1.00  0.00     0.000 A 
HETATM   15  C7  UNL     1     -38.551  14.511  48.414  1.00  0.00     0.000 A 
HETATM   16  C2  UNL     1     -40.052  14.062  49.932  1.00  0.00     0.000 A 
HETATM   17  C3  UNL     1     -40.468  14.774  49.956  1.00  0.00     0.000 A 
HETATM   18  C4  UNL     1     -40.245  15.398  49.466  1.00  0.00     0.000 A 
ENDBRANCH   1  12
TORSDOF 26
ENDMDL
