MODEL 1
REMARK VINA RESULT:     403.0      0.000      0.000
REMARK  30 active torsions:
REMARK  status: ('A' for Active; 'I' for Inactive)
REMARK    1  A    between atoms: O1_1  and  C7_13 
REMARK    2  A    between atoms: N1_2  and  C16_22 
REMARK    3  A    between atoms: N3_4  and  C13_19 
REMARK    4  A    between atoms: N4_5  and  C10_16 
REMARK    5  A    between atoms: N4_5  and  C13_19 
REMARK    6  A    between atoms: C1_7  and  C2_8 
REMARK    7  A    between atoms: C1_7  and  C7_13 
REMARK    8  A    between atoms: C1_7  and  C10_16 
REMARK    9  A    between atoms: C2_8  and  C6_12 
REMARK   10  A    between atoms: C2_8  and  C9_15 
REMARK   11  A    between atoms: C2_8  and  C11_17 
REMARK   12  A    between atoms: C3_9  and  C8_14 
REMARK   13  A    between atoms: C3_9  and  C14_20 
REMARK   14  A    between atoms: C4_10  and  C5_11 
REMARK   15  A    between atoms: C4_10  and  C6_12 
REMARK   16  A    between atoms: C4_10  and  C7_13 
REMARK   17  A    between atoms: C4_10  and  C9_15 
REMARK   18  A    between atoms: C5_11  and  C11_17 
REMARK   19  A    between atoms: C5_11  and  C16_22 
REMARK   20  A    between atoms: C6_12  and  C7_13 
REMARK   21  A    between atoms: C6_12  and  C10_16 
REMARK   22  A    between atoms: C7_13  and  C9_15 
REMARK   23  A    between atoms: C7_13  and  C11_17 
REMARK   24  A    between atoms: C8_14  and  C10_16 
REMARK   25  A    between atoms: C8_14  and  C15_21 
REMARK   26  A    between atoms: C10_16  and  C14_20 
REMARK   27  A    between atoms: C11_17  and  C12_18 
REMARK   28  A    between atoms: C12_18  and  C16_22 
REMARK   29  A    between atoms: C13_19  and  C15_21 
REMARK   30  A    between atoms: C15_21  and  C17_23 
ROOT
HETATM    1  O1  UNL     1     -40.621  10.694  47.533  1.00  0.00     0.000 OA
HETATM    2  N1  UNL     1     -39.887  11.919  47.536  1.00  0.00     0.000 N 
HETATM    3  N2  UNL     1     -37.017  12.699  47.536  1.00  0.00     0.000 N 
HETATM    4  N3  UNL     1     -37.616  13.260  47.539  1.00  0.00     0.000 N 
HETATM    5  N4  UNL     1     -35.588  12.677  47.535  1.00  0.00     0.000 N 
HETATM    6  N5  UNL     1     -35.334  15.115  47.543  1.00  0.00    -0.183 N 
HETATM    7  C1  UNL     1     -37.750  11.474  47.532  1.00  0.00     0.000 A 
HETATM    8  C2  UNL     1     -39.179  11.496  47.534  1.00  0.00     0.000 A 
HETATM    9  C3  UNL     1     -37.029  11.875  47.533  1.00  0.00     0.002 A 
HETATM   10  C4  UNL     1     -38.458  11.897  47.535  1.00  0.00     0.000 A 
HETATM   11  C5  UNL     1     -39.874  12.745  47.539  1.00  0.00     0.000 A 
HETATM   12  C6  UNL     1     -37.764  10.648  47.529  1.00  0.00     0.000 A 
HETATM   13  C7  UNL     1     -39.192  10.672  47.531  1.00  0.00     0.000 A 
HETATM   14  C8  UNL     1     -36.296  13.100  47.537  1.00  0.00     0.021 A 
HETATM   15  C9  UNL     1     -38.485  10.247  47.529  1.00  0.00     0.000 A 
HETATM   16  C10 UNL     1     -36.322  11.450  47.531  1.00  0.00     0.002 A 
HETATM   17  C11 UNL     1     -40.608  11.518  47.536  1.00  0.00     0.000 A 
HETATM   18  C12 UNL     1     -40.581  13.168  47.541  1.00  0.00     0.000 A 
HETATM   19  C13 UNL     1     -36.455  13.905  47.540  1.00  0.00     0.026 A 
HETATM   20  C14 UNL     1     -35.601  11.852  47.532  1.00  0.00     0.002 A 
HETATM   21  C15 UNL     1     -37.269  14.003  47.541  1.00  0.00     0.026 A 
HETATM   22  C16 UNL     1     -41.316  11.942  47.538  1.00  0.00     0.000 A 
HETATM   23  C17 UNL     1     -35.894  14.510  47.542  1.00  0.00     0.104 A 
ENDROOT
TORSDOF 30
ENDMDL
