MODEL 1
REMARK VINA RESULT:     285.2      0.000      0.000
REMARK  27 active torsions:
REMARK  status: ('A' for Active; 'I' for Inactive)
REMARK    1  A    between atoms: BR1_1  and  C14_19 
REMARK    2  A    between atoms: O1_2  and  N1_5 
REMARK    3  A    between atoms: O3_4  and  C5_10 
REMARK    4  A    between atoms: C1_6  and  C2_7 
REMARK    5  A    between atoms: C1_6  and  C7_12 
REMARK    6  A    between atoms: C1_6  and  C12_17 
REMARK    7  A    between atoms: C2_7  and  C5_10 
REMARK    8  A    between atoms: C2_7  and  C8_13 
REMARK    9  A    between atoms: C2_7  and  C9_14 
REMARK   10  A    between atoms: C2_7  and  C10_15 
REMARK   11  A    between atoms: C3_8  and  C6_11 
REMARK   12  A    between atoms: C3_8  and  C9_14 
REMARK   13  A    between atoms: C4_9  and  C5_10 
REMARK   14  A    between atoms: C5_10  and  C7_12 
REMARK   15  A    between atoms: C5_10  and  C12_17 
REMARK   16  A    between atoms: C6_11  and  C7_12 
REMARK   17  A    between atoms: C7_12  and  C9_14 
REMARK   18  A    between atoms: C7_12  and  C8_13 
REMARK   19  A    between atoms: C7_12  and  C10_15 
REMARK   20  A    between atoms: C8_13  and  C15_20 
REMARK   21  A    between atoms: C10_15  and  C11_16 
REMARK   22  A    between atoms: C10_15  and  C14_19 
REMARK   23  A    between atoms: C10_15  and  C15_20 
REMARK   24  A    between atoms: C11_16  and  C13_18 
REMARK   25  A    between atoms: C11_16  and  C15_20 
REMARK   26  A    between atoms: C13_18  and  C14_19 
REMARK   27  A    between atoms: C14_19  and  C15_20 
ROOT
HETATM    1 BR1  UNL     1     -36.034  15.692  50.434  1.00  0.00    -0.185 Br
HETATM    2  O1  UNL     1     -39.667  14.646  50.458  1.00  0.00     0.000 OA
HETATM    3  O2  UNL     1     -41.314  10.604  50.524  1.00  0.00    -0.355 OA
HETATM    4  O3  UNL     1     -39.886  10.528  50.522  1.00  0.00     0.000 OA
HETATM    5  N1  UNL     1     -40.447  13.449  50.478  1.00  0.00     0.122 N 
HETATM    6  C1  UNL     1     -39.799  12.174  50.496  1.00  0.00     0.195 A 
HETATM    7  C2  UNL     1     -39.019  13.373  50.476  1.00  0.00     0.155 A 
HETATM    8  C3  UNL     1     -39.755  12.999  50.483  1.00  0.00     0.181 A 
HETATM    9  C4  UNL     1     -40.534  11.801  50.504  1.00  0.00     0.150 A 
HETATM   10  C5  UNL     1     -39.107  11.724  50.501  1.00  0.00     0.115 A 
HETATM   11  C6  UNL     1     -38.976  14.196  50.463  1.00  0.00     0.058 A 
HETATM   12  C7  UNL     1     -38.328  12.923  50.481  1.00  0.00     0.083 A 
HETATM   13  C8  UNL     1     -38.240  14.570  50.456  1.00  0.00     0.047 A 
HETATM   14  C9  UNL     1     -38.372  12.099  50.494  1.00  0.00     0.088 A 
HETATM   15  C10 UNL     1     -37.548  14.120  50.461  1.00  0.00     0.047 A 
HETATM   16  C11 UNL     1     -38.196  15.394  50.443  1.00  0.00     0.030 A 
HETATM   17  C12 UNL     1     -40.578  10.978  50.516  1.00  0.00     0.150 A 
HETATM   18  C13 UNL     1     -36.813  14.494  50.454  1.00  0.00     0.039 A 
HETATM   19  C14 UNL     1     -37.461  15.767  50.436  1.00  0.00     0.039 A 
HETATM   20  C15 UNL     1     -36.769  15.317  50.441  1.00  0.00     0.039 A 
ENDROOT
TORSDOF 27
ENDMDL
