MODEL 1
REMARK VINA RESULT:     282.9      0.000      0.000
REMARK  30 active torsions:
REMARK  status: ('A' for Active; 'I' for Inactive)
REMARK    1  A    between atoms: CL1_1  and  C16_19 
REMARK    2  A    between atoms: N1_2  and  C4_7 
REMARK    3  A    between atoms: N2_3  and  C1_4 
REMARK    4  A    between atoms: N2_3  and  C4_7 
REMARK    5  A    between atoms: N2_3  and  C18_21 
REMARK    6  A    between atoms: C1_4  and  C5_8 
REMARK    7  A    between atoms: C1_4  and  C6_9 
REMARK    8  A    between atoms: C1_4  and  C8_11 
REMARK    9  A    between atoms: C1_4  and  C13_16 
REMARK   10  A    between atoms: C2_5  and  C12_15 
REMARK   11  A    between atoms: C3_6  and  C4_7 
REMARK   12  A    between atoms: C3_6  and  C6_9 
REMARK   13  A    between atoms: C3_6  and  C7_10 
REMARK   14  A    between atoms: C3_6  and  C13_16 
REMARK   15  A    between atoms: C4_7  and  C6_9 
REMARK   16  A    between atoms: C4_7  and  C5_8 
REMARK   17  A    between atoms: C4_7  and  C8_11 
REMARK   18  A    between atoms: C7_10  and  C8_11 
REMARK   19  A    between atoms: C8_11  and  C11_14 
REMARK   20  A    between atoms: C9_12  and  C12_15 
REMARK   21  A    between atoms: C9_12  and  C14_17 
REMARK   22  A    between atoms: C10_13  and  C13_16 
REMARK   23  A    between atoms: C10_13  and  C17_20 
REMARK   24  A    between atoms: C11_14  and  C12_15 
REMARK   25  A    between atoms: C11_14  and  C15_18 
REMARK   26  A    between atoms: C13_16  and  C17_20 
REMARK   27  A    between atoms: C14_17  and  C16_19 
REMARK   28  A    between atoms: C15_18  and  C19_22 
REMARK   29  A    between atoms: C16_19  and  C17_20 
REMARK   30  A    between atoms: C18_21  and  C19_22 
ROOT
HETATM    1 CL1  UNL     1     -40.196  10.456  49.417  1.00  0.00    -0.249 Cl
HETATM    2  N1  UNL     1     -38.227  14.660  50.515  1.00  0.00    -0.015 N 
HETATM    3  N2  UNL     1     -40.045  15.118  48.684  1.00  0.00     0.000 N 
HETATM    4  C1  UNL     1     -39.392  14.069  49.508  1.00  0.00     0.094 A 
HETATM    5  C2  UNL     1     -39.975  13.773  49.004  1.00  0.00     0.054 A 
HETATM    6  C3  UNL     1     -38.976  13.556  50.004  1.00  0.00     0.161 A 
HETATM    7  C4  UNL     1     -39.225  14.876  49.516  1.00  0.00     0.175 A 
HETATM    8  C5  UNL     1     -38.393  13.852  50.507  1.00  0.00     0.213 A 
HETATM    9  C6  UNL     1     -38.642  15.172  50.020  1.00  0.00     0.213 A 
HETATM   10  C7  UNL     1     -40.098  12.958  49.039  1.00  0.00     0.048 A 
HETATM   11  C8  UNL     1     -40.357  14.331  48.532  1.00  0.00     0.032 A 
HETATM   12  C9  UNL     1     -41.179  12.743  48.043  1.00  0.00     0.016 A 
HETATM   13  C10 UNL     1     -40.634  12.500  48.612  1.00  0.00     0.028 A 
HETATM   14  C11 UNL     1     -41.323  13.506  47.761  1.00  0.00     0.005 A 
HETATM   15  C12 UNL     1     -40.957  14.213  47.979  1.00  0.00     0.006 A 
HETATM   16  C13 UNL     1     -39.570  12.598  49.614  1.00  0.00     0.052 A 
HETATM   17  C14 UNL     1     -40.680  11.650  48.728  1.00  0.00     0.048 A 
HETATM   18  C15 UNL     1     -41.287  14.872  47.538  1.00  0.00     0.002 A 
HETATM   19  C16 UNL     1     -39.601  11.749  49.745  1.00  0.00     0.057 A 
HETATM   20  C17 UNL     1     -40.160  11.271  49.299  1.00  0.00     0.056 A 
HETATM   21  C18 UNL     1     -40.988  15.665  47.676  1.00  0.00     0.000 A 
HETATM   22  C19 UNL     1     -40.363  15.790  48.252  1.00  0.00     0.002 A 
ENDROOT
TORSDOF 30
ENDMDL
