MODEL 1
REMARK VINA RESULT:     279.4      0.000      0.000
REMARK  32 active torsions:
REMARK  status: ('A' for Active; 'I' for Inactive)
REMARK    1  A    between atoms: O1_1  and  C3_8 
REMARK    2  A    between atoms: N1_2  and  C3_8 
REMARK    3  A    between atoms: N1_2  and  C12_17 
REMARK    4  A    between atoms: N1_2  and  C16_21 
REMARK    5  A    between atoms: N2_3  and  C5_10 
REMARK    6  A    between atoms: N3_4  and  N4_5 
REMARK    7  A    between atoms: N3_4  and  C15_20 
REMARK    8  A    between atoms: C1_6  and  C4_9 
REMARK    9  A    between atoms: C1_6  and  C7_12 
REMARK   10  A    between atoms: C2_7  and  C3_8 
REMARK   11  A    between atoms: C2_7  and  C7_12 
REMARK   12  A    between atoms: C2_7  and  C16_21 
REMARK   13  A    between atoms: C3_8  and  C7_12 
REMARK   14  A    between atoms: C3_8  and  C4_9 
REMARK   15  A    between atoms: C3_8  and  C6_11 
REMARK   16  A    between atoms: C4_9  and  C12_17 
REMARK   17  A    between atoms: C4_9  and  C15_20 
REMARK   18  A    between atoms: C4_9  and  C16_21 
REMARK   19  A    between atoms: C5_10  and  C6_11 
REMARK   20  A    between atoms: C5_10  and  C7_12 
REMARK   21  A    between atoms: C5_10  and  C11_16 
REMARK   22  A    between atoms: C5_10  and  C14_19 
REMARK   23  A    between atoms: C6_11  and  C9_14 
REMARK   24  A    between atoms: C6_11  and  C10_15 
REMARK   25  A    between atoms: C6_11  and  C13_18 
REMARK   26  A    between atoms: C7_12  and  C8_13 
REMARK   27  A    between atoms: C8_13  and  C15_20 
REMARK   28  A    between atoms: C10_15  and  C11_16 
REMARK   29  A    between atoms: C10_15  and  C14_19 
REMARK   30  A    between atoms: C11_16  and  C13_18 
REMARK   31  A    between atoms: C12_17  and  C16_21 
REMARK   32  A    between atoms: C13_18  and  C14_19 
ROOT
HETATM    1  O1  UNL     1     -37.920  13.909  50.465  1.00  0.00     0.000 OA
HETATM    2  N1  UNL     1     -38.384  12.586  50.473  1.00  0.00     0.000 N 
HETATM    3  N2  UNL     1     -40.582  13.600  50.474  1.00  0.00     0.000 N 
HETATM    4  N3  UNL     1     -36.800  11.179  50.475  1.00  0.00     0.000 N 
HETATM    5  N4  UNL     1     -37.696  10.262  50.481  1.00  0.00     0.000 N 
HETATM    6  C1  UNL     1     -39.915  13.173  50.474  1.00  0.00     0.000 A 
HETATM    7  C2  UNL     1     -39.791  12.358  50.477  1.00  0.00     0.000 A 
HETATM    8  C3  UNL     1     -39.303  13.677  50.470  1.00  0.00     0.000 A 
HETATM    9  C4  UNL     1     -39.022  12.062  50.477  1.00  0.00     0.000 A 
HETATM   10  C5  UNL     1     -39.592  14.414  50.467  1.00  0.00     0.000 A 
HETATM   11  C6  UNL     1     -40.383  14.367  50.470  1.00  0.00     0.000 A 
HETATM   12  C7  UNL     1     -38.526  13.399  50.469  1.00  0.00     0.000 A 
HETATM   13  C8  UNL     1     -37.642  12.311  50.472  1.00  0.00     0.000 A 
HETATM   14  C9  UNL     1     -41.319  13.311  50.477  1.00  0.00     0.000 A 
HETATM   15  C10 UNL     1     -39.212  15.147  50.463  1.00  0.00     0.000 A 
HETATM   16  C11 UNL     1     -40.848  15.048  50.468  1.00  0.00     0.000 A 
HETATM   17  C12 UNL     1     -37.509  11.530  50.475  1.00  0.00     0.000 A 
HETATM   18  C13 UNL     1     -39.661  15.838  50.461  1.00  0.00     0.000 A 
HETATM   19  C14 UNL     1     -40.485  15.789  50.463  1.00  0.00     0.000 A 
HETATM   20  C15 UNL     1     -38.062  10.964  50.479  1.00  0.00     0.000 A 
HETATM   21  C16 UNL     1     -38.847  11.079  50.481  1.00  0.00     0.000 A 
HETATM   22  C17 UNL     1     -36.914  10.395  50.479  1.00  0.00     0.000 A 
ENDROOT
TORSDOF 32
ENDMDL
