MODEL 1
REMARK VINA RESULT:     412.0      0.000      0.000
REMARK WARNING: 32 MAX_TORS EXCEEDED!!!
REMARK  33 active torsions:
REMARK  status: ('A' for Active; 'I' for Inactive)
REMARK    1  A    between atoms: CL1_1  and  C21_26 
REMARK    2  A    between atoms: O1_2  and  C3_8 
REMARK    3  A    between atoms: N1_3  and  C4_9 
REMARK    4  A    between atoms: N2_4  and  C9_14 
REMARK    5  A    between atoms: N3_5  and  C7_12 
REMARK    6  A    between atoms: N3_5  and  C11_16 
REMARK    7  A    between atoms: N3_5  and  C19_24 
REMARK    8  A    between atoms: C1_6  and  C5_10 
REMARK    9  A    between atoms: C1_6  and  C7_12 
REMARK   10  A    between atoms: C2_7  and  C3_8 
REMARK   11  A    between atoms: C2_7  and  C6_11 
REMARK   12  A    between atoms: C3_8  and  C7_12 
REMARK   13  A    between atoms: C4_9  and  C6_11 
REMARK   14  A    between atoms: C6_11  and  C8_13 
REMARK   15  A    between atoms: C7_12  and  C10_15 
REMARK   16  A    between atoms: C9_14  and  C10_15 
REMARK   17  A    between atoms: C10_15  and  C11_16 
REMARK   18  A    between atoms: C10_15  and  C14_19 
REMARK   19  A    between atoms: C10_15  and  C19_24 
REMARK   20  A    between atoms: C11_16  and  C12_17 
REMARK   21  A    between atoms: C11_16  and  C13_18 
REMARK   22  A    between atoms: C12_17  and  C14_19 
REMARK   23  A    between atoms: C13_18  and  C17_22 
REMARK   24  A    between atoms: C14_19  and  C16_21 
REMARK   25  A    between atoms: C15_20  and  C22_27 
REMARK   26  A    between atoms: C16_21  and  C17_22 
REMARK   27  A    between atoms: C18_23  and  C19_24 
REMARK   28  A    between atoms: C18_23  and  C21_26 
REMARK   29  A    between atoms: C18_23  and  C22_27 
REMARK   30  A    between atoms: C19_24  and  C20_25 
REMARK   31  A    between atoms: C19_24  and  C22_27 
REMARK   32  A    between atoms: C20_25  and  C21_26 
REMARK   33  A    between atoms: C21_26  and  C22_27 
ROOT
HETATM    1 CL1  UNL     1     -41.023  10.475  47.662  1.00  0.00    -0.251 Cl
HETATM    2  O1  UNL     1     -37.234  13.710  50.464  1.00  0.00     0.000 OA
HETATM    3  N1  UNL     1     -36.288  11.069  50.162  1.00  0.00     0.000 N 
HETATM    4  N2  UNL     1     -38.181  12.901  49.764  1.00  0.00     0.000 N 
HETATM    5  N3  UNL     1     -38.908  12.820  49.383  1.00  0.00     0.000 N 
HETATM    6  C1  UNL     1     -37.674  12.254  49.825  1.00  0.00     0.000 A 
HETATM    7  C2  UNL     1     -37.946  11.552  49.487  1.00  0.00     0.000 A 
HETATM    8  C3  UNL     1     -36.960  12.393  50.216  1.00  0.00     0.000 A 
HETATM    9  C4  UNL     1     -37.573  10.817  49.458  1.00  0.00     0.000 A 
HETATM   10  C5  UNL     1     -36.344  11.866  50.366  1.00  0.00     0.000 A 
HETATM   11  C6  UNL     1     -36.835  10.601  49.758  1.00  0.00     0.000 A 
HETATM   12  C7  UNL     1     -37.961  13.629  50.083  1.00  0.00     0.000 A 
HETATM   13  C8  UNL     1     -35.594  10.687  50.393  1.00  0.00     0.000 A 
HETATM   14  C9  UNL     1     -38.468  14.276  50.022  1.00  0.00     0.000 A 
HETATM   15  C10 UNL     1     -39.416  13.468  49.321  1.00  0.00     0.005 A 
HETATM   16  C11 UNL     1     -39.196  14.196  49.641  1.00  0.00     0.001 A 
HETATM   17  C12 UNL     1     -40.143  13.387  48.940  1.00  0.00     0.008 A 
HETATM   18  C13 UNL     1     -38.228  15.030  50.358  1.00  0.00     0.000 A 
HETATM   19  C14 UNL     1     -39.733  14.863  49.570  1.00  0.00     0.001 A 
HETATM   20  C15 UNL     1     -40.363  12.659  48.621  1.00  0.00     0.030 A 
HETATM   21  C16 UNL     1     -38.752  15.708  50.298  1.00  0.00     0.000 A 
HETATM   22  C17 UNL     1     -39.510  15.624  49.901  1.00  0.00     0.000 A 
HETATM   23  C18 UNL     1     -41.090  12.578  48.240  1.00  0.00     0.033 A 
HETATM   24  C19 UNL     1     -39.856  12.012  48.682  1.00  0.00     0.030 A 
HETATM   25  C20 UNL     1     -41.310  11.850  47.920  1.00  0.00     0.048 A 
HETATM   26  C21 UNL     1     -40.075  11.283  48.363  1.00  0.00     0.048 A 
HETATM   27  C22 UNL     1     -40.802  11.202  47.982  1.00  0.00     0.048 A 
ENDROOT
TORSDOF 33
ENDMDL
