MODEL 1
REMARK VINA RESULT:      -0.1      0.000      0.000
REMARK  0 active torsions:
REMARK  status: ('A' for Active; 'I' for Inactive)
ROOT
HETATM    1  O1  UNL     1     -41.328  15.836  49.770  1.00  0.00     0.000 OA
HETATM    2  O2  UNL     1     -40.927  15.827  50.491  1.00  0.00     0.000 OA
ENDROOT
TORSDOF 0
ENDMDL
MODEL 2
REMARK VINA RESULT:       0.4      1.696      1.904
REMARK  0 active torsions:
REMARK  status: ('A' for Active; 'I' for Inactive)
ROOT
HETATM    1  O1  UNL     1     -39.688  15.833  50.371  1.00  0.00     0.000 OA
HETATM    2  O2  UNL     1     -38.877  15.829  50.522  1.00  0.00     0.000 OA
ENDROOT
TORSDOF 0
ENDMDL
