MODEL 1
REMARK VINA RESULT:     421.8      0.000      0.000
REMARK  32 active torsions:
REMARK  status: ('A' for Active; 'I' for Inactive)
REMARK    1  A    between atoms: F1_1  and  C8_16 
REMARK    2  A    between atoms: F1_1  and  C12_20 
REMARK    3  A    between atoms: N1_6  and  C4_12 
REMARK    4  A    between atoms: N1_6  and  C7_15 
REMARK    5  A    between atoms: N1_6  and  C9_17 
REMARK    6  A    between atoms: N2_7  and  C3_11 
REMARK    7  A    between atoms: N3_8  and  C15_23 
REMARK    8  A    between atoms: C1_9  and  C3_11 
REMARK    9  A    between atoms: C2_10  and  C4_12 
REMARK   10  A    between atoms: C2_10  and  C6_14 
REMARK   11  A    between atoms: C3_11  and  C4_12 
REMARK   12  A    between atoms: C3_11  and  C5_13 
REMARK   13  A    between atoms: C5_13  and  C8_16 
REMARK   14  A    between atoms: C5_13  and  C10_18 
REMARK   15  A    between atoms: C5_13  and  C11_19 
REMARK   16  A    between atoms: C7_15  and  C9_17 
REMARK   17  A    between atoms: C7_15  and  C10_18 
REMARK   18  A    between atoms: C7_15  and  C11_19 
REMARK   19  A    between atoms: C7_15  and  C12_20 
REMARK   20  A    between atoms: C8_16  and  C9_17 
REMARK   21  A    between atoms: C8_16  and  C11_19 
REMARK   22  A    between atoms: C8_16  and  C13_21 
REMARK   23  A    between atoms: C9_17  and  C10_18 
REMARK   24  A    between atoms: C10_18  and  C11_19 
REMARK   25  A    between atoms: C10_18  and  C15_23 
REMARK   26  A    between atoms: C11_19  and  C13_21 
REMARK   27  A    between atoms: C12_20  and  C14_22 
REMARK   28  A    between atoms: C13_21  and  C14_22 
REMARK   29  A    between atoms: C13_21  and  C17_25 
REMARK   30  A    between atoms: C14_22  and  C15_23 
REMARK   31  A    between atoms: C14_22  and  C16_24 
REMARK   32  A    between atoms: C14_22  and  C17_25 
ROOT
HETATM    1  F1  UNL     1     -38.693  13.999  49.178  1.00  0.00    -0.574 F 
HETATM    2  F2  UNL     1     -39.981  11.887  47.747  1.00  0.00    -0.530 F 
HETATM    3  O1  UNL     1     -37.557  10.564  48.910  1.00  0.00     0.000 OA
HETATM    4  O2  UNL     1     -35.659  11.366  50.351  1.00  0.00    -0.318 OA
HETATM    5  O3  UNL     1     -36.307  10.314  49.635  1.00  0.00    -0.318 OA
HETATM    6  N1  UNL     1     -39.934  13.463  48.232  1.00  0.00     0.000 N 
HETATM    7  N2  UNL     1     -41.129  14.504  47.771  1.00  0.00     0.000 N 
HETATM    8  N3  UNL     1     -37.478  12.982  49.658  1.00  0.00     0.000 N 
HETATM    9  C1  UNL     1     -40.508  14.771  48.244  1.00  0.00     0.053 A 
HETATM   10  C2  UNL     1     -39.911  14.251  48.474  1.00  0.00     0.069 A 
HETATM   11  C3  UNL     1     -40.554  13.194  47.759  1.00  0.00     0.094 A 
HETATM   12  C4  UNL     1     -41.152  13.715  47.528  1.00  0.00     0.056 A 
HETATM   13  C5  UNL     1     -39.337  12.943  48.462  1.00  0.00     0.083 A 
HETATM   14  C6  UNL     1     -40.485  15.559  48.486  1.00  0.00     0.031 A 
HETATM   15  C7  UNL     1     -38.716  13.211  48.935  1.00  0.00     0.105 A 
HETATM   16  C8  UNL     1     -38.119  12.691  49.166  1.00  0.00     0.100 A 
HETATM   17  C9  UNL     1     -39.360  12.154  48.220  1.00  0.00     0.119 A 
HETATM   18  C10 UNL     1     -38.142  11.902  48.923  1.00  0.00     0.142 A 
HETATM   19  C11 UNL     1     -38.763  11.635  48.451  1.00  0.00     0.114 A 
HETATM   20  C12 UNL     1     -37.463  13.772  49.896  1.00  0.00     0.079 A 
HETATM   21  C13 UNL     1     -37.526  11.351  49.157  1.00  0.00     0.141 A 
HETATM   22  C14 UNL     1     -36.853  12.445  49.902  1.00  0.00     0.126 A 
HETATM   23  C15 UNL     1     -36.877  11.624  49.649  1.00  0.00     0.185 A 
HETATM   24  C16 UNL     1     -36.846  14.049  50.369  1.00  0.00     0.040 A 
HETATM   25  C17 UNL     1     -36.281  11.102  49.878  1.00  0.00     0.205 A 
ENDROOT
TORSDOF 32
ENDMDL
