MODEL 1
REMARK VINA RESULT:     363.0      0.000      0.000
REMARK  25 active torsions:
REMARK  status: ('A' for Active; 'I' for Inactive)
REMARK    1  A    between atoms: O1_1  and  O3_3 
REMARK    2  A    between atoms: O1_1  and  C8_12 
REMARK    3  A    between atoms: O2_2  and  C10_14 
REMARK    4  A    between atoms: O2_2  and  C15_19 
REMARK    5  A    between atoms: C1_5  and  C8_12 
REMARK    6  A    between atoms: C1_5  and  C9_13 
REMARK    7  A    between atoms: C2_6  and  C5_9 
REMARK    8  A    between atoms: C2_6  and  C6_10 
REMARK    9  A    between atoms: C3_7  and  C4_8 
REMARK   10  A    between atoms: C3_7  and  C6_10 
REMARK   11  A    between atoms: C3_7  and  C7_11 
REMARK   12  A    between atoms: C3_7  and  C9_13 
REMARK   13  A    between atoms: C4_8  and  C5_9 
REMARK   14  A    between atoms: C5_9  and  C9_13 
REMARK   15  A    between atoms: C7_11  and  C8_12 
REMARK   16  A    between atoms: C7_11  and  C14_18 
REMARK   17  A    between atoms: C8_12  and  C10_14 
REMARK   18  A    between atoms: C9_13  and  C10_14 
REMARK   19  A    between atoms: C9_13  and  C13_17 
REMARK   20  A    between atoms: C10_14  and  C12_16 
REMARK   21  A    between atoms: C10_14  and  C14_18 
REMARK   22  A    between atoms: C11_15  and  C16_20 
REMARK   23  A    between atoms: C12_16  and  C13_17 
REMARK   24  A    between atoms: C13_17  and  C14_18 
REMARK   25  A    between atoms: C16_20  and  C17_21 
ROOT
HETATM    1  O1  UNL     1     -38.128  13.982  50.022  1.00  0.00     0.000 OA
HETATM    2  O2  UNL     1     -37.701  12.406  49.244  1.00  0.00     0.000 OA
HETATM    3  O3  UNL     1     -37.451  13.471  50.164  1.00  0.00     0.000 OA
HETATM    4  N1  UNL     1     -36.097  10.935  49.402  1.00  0.00    -0.001 N 
HETATM    5  C1  UNL     1     -38.835  14.223  49.670  1.00  0.00     0.002 A 
HETATM    6  C2  UNL     1     -38.837  14.902  50.139  1.00  0.00     0.000 A 
HETATM    7  C3  UNL     1     -39.506  14.241  49.191  1.00  0.00     0.000 A 
HETATM    8  C4  UNL     1     -39.510  15.340  49.948  1.00  0.00     0.000 A 
HETATM    9  C5  UNL     1     -39.923  14.931  49.363  1.00  0.00     0.000 A 
HETATM   10  C6  UNL     1     -38.614  13.502  49.334  1.00  0.00     0.002 A 
HETATM   11  C7  UNL     1     -39.084  13.158  48.750  1.00  0.00     0.002 A 
HETATM   12  C8  UNL     1     -37.921  13.126  49.581  1.00  0.00     0.028 A 
HETATM   13  C9  UNL     1     -39.777  13.534  48.503  1.00  0.00     0.000 A 
HETATM   14  C10 UNL     1     -38.863  12.437  48.413  1.00  0.00     0.002 A 
HETATM   15  C11 UNL     1     -37.009  12.030  49.491  1.00  0.00     0.221 A 
HETATM   16  C12 UNL     1     -40.247  13.190  47.919  1.00  0.00     0.000 A 
HETATM   17  C13 UNL     1     -39.334  12.093  47.830  1.00  0.00     0.000 A 
HETATM   18  C14 UNL     1     -40.026  12.469  47.583  1.00  0.00     0.000 A 
HETATM   19  C15 UNL     1     -36.789  11.310  49.154  1.00  0.00     0.248 A 
HETATM   20  C16 UNL     1     -35.626  11.279  49.985  1.00  0.00     0.248 A 
HETATM   21  C17 UNL     1     -35.876  10.214  49.065  1.00  0.00     0.250 A 
ENDROOT
TORSDOF 25
ENDMDL
