MODEL 1
REMARK VINA RESULT:     251.4      0.000      0.000
REMARK  20 active torsions:
REMARK  status: ('A' for Active; 'I' for Inactive)
REMARK    1  A    between atoms: O1_1  and  C8_11 
REMARK    2  A    between atoms: N1_3  and  C15_18 
REMARK    3  A    between atoms: C1_4  and  C11_14 
REMARK    4  A    between atoms: C2_5  and  C4_7 
REMARK    5  A    between atoms: C2_5  and  C9_12 
REMARK    6  A    between atoms: C2_5  and  C13_16 
REMARK    7  A    between atoms: C3_6  and  C5_8 
REMARK    8  A    between atoms: C3_6  and  C6_9 
REMARK    9  A    between atoms: C4_7  and  C5_8 
REMARK   10  A    between atoms: C4_7  and  C10_13 
REMARK   11  A    between atoms: C5_8  and  C7_10 
REMARK   12  A    between atoms: C5_8  and  C9_12 
REMARK   13  A    between atoms: C5_8  and  C13_16 
REMARK   14  A    between atoms: C7_10  and  C10_13 
REMARK   15  A    between atoms: C7_10  and  C12_15 
REMARK   16  A    between atoms: C7_10  and  C13_16 
REMARK   17  A    between atoms: C8_11  and  C12_15 
REMARK   18  A    between atoms: C8_11  and  C9_12 
REMARK   19  A    between atoms: C9_12  and  C10_13 
REMARK   20  A    between atoms: C10_13  and  C13_16 
ROOT
HETATM    1  O1  UNL     1     -37.226  10.353  50.126  1.00  0.00     0.000 OA
HETATM    2  O2  UNL     1     -39.175  15.571  50.524  1.00  0.00     0.000 OA
HETATM    3  N1  UNL     1     -39.371  14.165  50.369  1.00  0.00     0.000 N 
HETATM    4  C1  UNL     1     -37.431  13.166  50.397  1.00  0.00     0.000 A 
HETATM    5  C2  UNL     1     -37.046  12.443  50.350  1.00  0.00     0.000 A 
HETATM    6  C3  UNL     1     -36.864  13.750  50.494  1.00  0.00     0.000 A 
HETATM    7  C4  UNL     1     -36.127  13.391  50.507  1.00  0.00     0.000 A 
HETATM    8  C5  UNL     1     -36.235  12.582  50.418  1.00  0.00     0.000 A 
HETATM    9  C6  UNL     1     -38.246  13.284  50.355  1.00  0.00     0.000 A 
HETATM   10  C7  UNL     1     -37.325  11.672  50.253  1.00  0.00     0.000 A 
HETATM   11  C8  UNL     1     -38.081  11.368  50.172  1.00  0.00     0.000 A 
HETATM   12  C9  UNL     1     -36.793  11.041  50.225  1.00  0.00     0.000 A 
HETATM   13  C10 UNL     1     -35.704  11.952  50.389  1.00  0.00     0.000 A 
HETATM   14  C11 UNL     1     -38.555  14.047  50.411  1.00  0.00     0.004 A 
HETATM   15  C12 UNL     1     -38.021  10.553  50.094  1.00  0.00     0.000 A 
HETATM   16  C13 UNL     1     -35.983  11.182  50.293  1.00  0.00     0.000 A 
HETATM   17  C14 UNL     1     -39.680  14.927  50.425  1.00  0.00     0.022 A 
HETATM   18  C15 UNL     1     -40.496  15.046  50.383  1.00  0.00     0.025 A 
HETATM   19  C16 UNL     1     -40.805  15.808  50.440  1.00  0.00    -0.051 A 
ENDROOT
TORSDOF 20
ENDMDL
