MODEL 1
REMARK VINA RESULT:     254.5      0.000      0.000
REMARK  21 active torsions:
REMARK  status: ('A' for Active; 'I' for Inactive)
REMARK    1  A    between atoms: O1_1  and  C13_18 
REMARK    2  A    between atoms: O2_2  and  C13_18 
REMARK    3  A    between atoms: N1_3  and  C3_8 
REMARK    4  A    between atoms: N2_4  and  C4_9 
REMARK    5  A    between atoms: C1_6  and  C5_10 
REMARK    6  A    between atoms: C1_6  and  C6_11 
REMARK    7  A    between atoms: C3_8  and  C5_10 
REMARK    8  A    between atoms: C3_8  and  C4_9 
REMARK    9  A    between atoms: C3_8  and  C7_12 
REMARK   10  A    between atoms: C4_9  and  C6_11 
REMARK   11  A    between atoms: C4_9  and  C7_12 
REMARK   12  A    between atoms: C4_9  and  C11_16 
REMARK   13  A    between atoms: C4_9  and  C12_17 
REMARK   14  A    between atoms: C5_10  and  C8_13 
REMARK   15  A    between atoms: C6_11  and  C9_14 
REMARK   16  A    between atoms: C6_11  and  C10_15 
REMARK   17  A    between atoms: C7_12  and  C9_14 
REMARK   18  A    between atoms: C9_14  and  C13_18 
REMARK   19  A    between atoms: C11_16  and  C12_17 
REMARK   20  A    between atoms: C12_17  and  C13_18 
REMARK   21  A    between atoms: C13_18  and  C14_19 
ROOT
HETATM    1  O1  UNL     1     -39.165  14.813  50.477  1.00  0.00     0.000 OA
HETATM    2  O2  UNL     1     -40.449  14.188  50.483  1.00  0.00     0.000 OA
HETATM    3  N1  UNL     1     -35.964  11.960  50.516  1.00  0.00     0.000 N 
HETATM    4  N2  UNL     1     -37.529  11.897  50.515  1.00  0.00     0.000 N 
HETATM    5  N3  UNL     1     -40.349  15.613  50.465  1.00  0.00     0.367 N 
HETATM    6  C1  UNL     1     -36.785  13.006  50.502  1.00  0.00     0.000 A 
HETATM    7  C2  UNL     1     -36.754  12.181  50.513  1.00  0.00     0.000 A 
HETATM    8  C3  UNL     1     -36.015  13.287  50.500  1.00  0.00     0.000 A 
HETATM    9  C4  UNL     1     -37.579  13.231  50.499  1.00  0.00     0.002 A 
HETATM   10  C5  UNL     1     -35.508  12.642  50.509  1.00  0.00     0.000 A 
HETATM   11  C6  UNL     1     -38.039  12.545  50.507  1.00  0.00     0.002 A 
HETATM   12  C7  UNL     1     -36.817  13.830  50.492  1.00  0.00     0.000 A 
HETATM   13  C8  UNL     1     -35.679  11.186  50.527  1.00  0.00     0.000 A 
HETATM   14  C9  UNL     1     -37.946  14.008  50.488  1.00  0.00     0.004 A 
HETATM   15  C10 UNL     1     -37.753  11.103  50.525  1.00  0.00     0.000 A 
HETATM   16  C11 UNL     1     -38.897  12.589  50.505  1.00  0.00     0.004 A 
HETATM   17  C12 UNL     1     -38.803  14.071  50.487  1.00  0.00     0.036 A 
HETATM   18  C13 UNL     1     -39.282  13.357  50.495  1.00  0.00     0.036 A 
HETATM   19  C14 UNL     1     -39.987  14.871  50.475  1.00  0.00     0.279 A 
HETATM   20  C15 UNL     1     -41.172  15.671  50.464  1.00  0.00     0.268 A 
ENDROOT
TORSDOF 21
ENDMDL
