MODEL 1
REMARK VINA RESULT:     157.7      0.000      0.000
REMARK  16 active torsions:
REMARK  status: ('A' for Active; 'I' for Inactive)
REMARK    1  A    between atoms: O1_1  and  C2_10 
REMARK    2  A    between atoms: O1_1  and  C5_13 
REMARK    3  A    between atoms: O2_2  and  C3_11 
REMARK    4  A    between atoms: O3_3  and  C4_12 
REMARK    5  A    between atoms: N1_6  and  N2_7 
REMARK    6  A    between atoms: N2_7  and  C8_16 
REMARK    7  A    between atoms: N3_8  and  C8_16 
REMARK    8  A    between atoms: C1_9  and  C4_12 
REMARK    9  A    between atoms: C2_10  and  C4_12 
REMARK   10  A    between atoms: C2_10  and  C3_11 
REMARK   11  A    between atoms: C2_10  and  C5_13 
REMARK   12  A    between atoms: C3_11  and  C7_15 
REMARK   13  A    between atoms: C6_14  and  C7_15 
REMARK   14  A    between atoms: C6_14  and  C9_17 
REMARK   15  A    between atoms: C7_15  and  C8_16 
REMARK   16  A    between atoms: C8_16  and  C9_17 
ROOT
HETATM    1  O1  UNL     1     -39.781  13.879  49.340  1.00  0.00     0.000 OA
HETATM    2  O2  UNL     1     -39.618  15.838  50.175  1.00  0.00     0.000 OA
HETATM    3  O3  UNL     1     -41.258  15.400  49.592  1.00  0.00     0.000 OA
HETATM    4  O4  UNL     1     -41.068  12.966  48.652  1.00  0.00    -0.359 OA
HETATM    5  O5  UNL     1     -38.590  15.769  50.401  1.00  0.00     0.000 OA
HETATM    6  N1  UNL     1     -38.532  14.441  49.876  1.00  0.00     0.000 N 
HETATM    7  N2  UNL     1     -37.355  15.048  50.413  1.00  0.00     0.000 N 
HETATM    8  N3  UNL     1     -36.121  14.328  50.426  1.00  0.00    -0.221 NA
HETATM    9  C1  UNL     1     -39.835  15.120  49.830  1.00  0.00     0.032 A 
HETATM   10  C2  UNL     1     -40.588  14.919  49.562  1.00  0.00     0.055 A 
HETATM   11  C3  UNL     1     -39.336  14.478  49.693  1.00  0.00     0.033 A 
HETATM   12  C4  UNL     1     -40.555  14.152  49.260  1.00  0.00     0.100 A 
HETATM   13  C5  UNL     1     -41.186  13.732  48.933  1.00  0.00     0.140 A 
HETATM   14  C6  UNL     1     -38.101  13.758  49.706  1.00  0.00     0.035 A 
HETATM   15  C7  UNL     1     -38.159  15.086  50.230  1.00  0.00     0.035 A 
HETATM   16  C8  UNL     1     -37.297  13.720  49.889  1.00  0.00     0.076 A 
HETATM   17  C9  UNL     1     -36.925  14.366  50.243  1.00  0.00     0.076 A 
ENDROOT
TORSDOF 16
ENDMDL
