MODEL 1
REMARK VINA RESULT:      34.6      0.000      0.000
REMARK  12 active torsions:
REMARK  status: ('A' for Active; 'I' for Inactive)
REMARK    1  A    between atoms: O1_1  and  C8_11 
REMARK    2  A    between atoms: O2_2  and  C7_10 
REMARK    3  A    between atoms: C2_5  and  C6_9 
REMARK    4  A    between atoms: C2_5  and  C8_11 
REMARK    5  A    between atoms: C3_6  and  C5_8 
REMARK    6  A    between atoms: C4_7  and  C5_8 
REMARK    7  A    between atoms: C4_7  and  C7_10 
REMARK    8  A    between atoms: C4_7  and  C8_11 
REMARK    9  A    between atoms: C5_8  and  C6_9 
REMARK   10  A    between atoms: C5_8  and  C8_11 
REMARK   11  A    between atoms: C6_9  and  C7_10 
REMARK   12  A    between atoms: C7_10  and  C8_11 
ROOT
HETATM    1  O1  UNL     1     -41.148  15.824  50.358  1.00  0.00     0.000 OA
HETATM    2  O2  UNL     1     -41.105  15.536  48.734  1.00  0.00     0.000 OA
HETATM    3  N1  UNL     1     -36.864  15.783  50.480  1.00  0.00    -0.301 NA
HETATM    4  C1  UNL     1     -38.292  15.797  50.439  1.00  0.00     0.084 A 
HETATM    5  C2  UNL     1     -38.995  15.732  50.014  1.00  0.00     0.035 A 
HETATM    6  C3  UNL     1     -37.567  15.717  50.054  1.00  0.00     0.099 A 
HETATM    7  C4  UNL     1     -39.720  15.811  50.399  1.00  0.00     0.022 A 
HETATM    8  C5  UNL     1     -38.973  15.587  49.201  1.00  0.00     0.035 A 
HETATM    9  C6  UNL     1     -40.423  15.745  49.972  1.00  0.00     0.009 A 
HETATM   10  C7  UNL     1     -39.677  15.522  48.775  1.00  0.00     0.009 A 
HETATM   11  C8  UNL     1     -40.402  15.601  49.161  1.00  0.00     0.009 A 
ENDROOT
TORSDOF 12
ENDMDL
