MODEL 1
REMARK VINA RESULT:     260.2      0.000      0.000
REMARK  20 active torsions:
REMARK  status: ('A' for Active; 'I' for Inactive)
REMARK    1  A    between atoms: O1_1  and  N2_4 
REMARK    2  A    between atoms: O2_2  and  C10_14 
REMARK    3  A    between atoms: C2_6  and  C3_7 
REMARK    4  A    between atoms: C2_6  and  C7_11 
REMARK    5  A    between atoms: C2_6  and  C8_12 
REMARK    6  A    between atoms: C2_6  and  C10_14 
REMARK    7  A    between atoms: C3_7  and  C4_8 
REMARK    8  A    between atoms: C3_7  and  C6_10 
REMARK    9  A    between atoms: C4_8  and  C5_9 
REMARK   10  A    between atoms: C4_8  and  C9_13 
REMARK   11  A    between atoms: C4_8  and  C10_14 
REMARK   12  A    between atoms: C5_9  and  C7_11 
REMARK   13  A    between atoms: C5_9  and  C8_12 
REMARK   14  A    between atoms: C5_9  and  C10_14 
REMARK   15  A    between atoms: C6_10  and  C7_11 
REMARK   16  A    between atoms: C8_12  and  C9_13 
REMARK   17  A    between atoms: C9_13  and  C10_14 
REMARK   18  A    between atoms: C10_14  and  C12_16 
REMARK   19  A    between atoms: C12_16  and  C13_17 
REMARK   20  A    between atoms: C13_17  and  C14_18 
ROOT
HETATM    1  O1  UNL     1     -38.852  13.852  50.234  1.00  0.00     0.000 OA
HETATM    2  O2  UNL     1     -40.204  13.401  50.138  1.00  0.00     0.000 OA
HETATM    3  N1  UNL     1     -36.461  11.173  50.432  1.00  0.00     0.000 N 
HETATM    4  N2  UNL     1     -39.917  14.800  50.147  1.00  0.00     0.000 N 
HETATM    5  C1  UNL     1     -36.721  11.955  50.407  1.00  0.00     0.000 A 
HETATM    6  C2  UNL     1     -37.527  12.121  50.346  1.00  0.00     0.000 A 
HETATM    7  C3  UNL     1     -36.174  12.573  50.442  1.00  0.00     0.000 A 
HETATM    8  C4  UNL     1     -37.786  12.904  50.320  1.00  0.00     0.000 A 
HETATM    9  C5  UNL     1     -38.073  11.504  50.311  1.00  0.00     0.000 A 
HETATM   10  C6  UNL     1     -35.655  11.007  50.493  1.00  0.00     0.000 A 
HETATM   11  C7  UNL     1     -37.008  10.555  50.397  1.00  0.00     0.000 A 
HETATM   12  C8  UNL     1     -38.592  13.070  50.259  1.00  0.00     0.000 A 
HETATM   13  C9  UNL     1     -38.879  11.670  50.250  1.00  0.00     0.000 A 
HETATM   14  C10 UNL     1     -39.139  12.452  50.224  1.00  0.00     0.000 A 
HETATM   15  C11 UNL     1     -40.723  14.965  50.087  1.00  0.00     0.000 A 
HETATM   16  C12 UNL     1     -39.658  14.017  50.173  1.00  0.00     0.000 A 
HETATM   17  C13 UNL     1     -39.371  15.417  50.183  1.00  0.00     0.000 A 
HETATM   18  C14 UNL     1     -40.983  15.748  50.061  1.00  0.00     0.000 A 
ENDROOT
TORSDOF 20
ENDMDL
