MODEL 1
REMARK VINA RESULT:     332.1      0.000      0.000
REMARK WARNING: 32 MAX_TORS EXCEEDED!!!
REMARK  33 active torsions:
REMARK  status: ('A' for Active; 'I' for Inactive)
REMARK    1  A    between atoms: O1_1  and  C11_13 
REMARK    2  A    between atoms: O1_1  and  C12_14 
REMARK    3  A    between atoms: O2_2  and  C18_20 
REMARK    4  A    between atoms: C1_3  and  C6_8 
REMARK    5  A    between atoms: C1_3  and  C10_12 
REMARK    6  A    between atoms: C2_4  and  C5_7 
REMARK    7  A    between atoms: C2_4  and  C15_17 
REMARK    8  A    between atoms: C3_5  and  C4_6 
REMARK    9  A    between atoms: C3_5  and  C6_8 
REMARK   10  A    between atoms: C3_5  and  C8_10 
REMARK   11  A    between atoms: C3_5  and  C11_13 
REMARK   12  A    between atoms: C4_6  and  C5_7 
REMARK   13  A    between atoms: C4_6  and  C9_11 
REMARK   14  A    between atoms: C5_7  and  C6_8 
REMARK   15  A    between atoms: C5_7  and  C10_12 
REMARK   16  A    between atoms: C5_7  and  C12_14 
REMARK   17  A    between atoms: C6_8  and  C7_9 
REMARK   18  A    between atoms: C6_8  and  C12_14 
REMARK   19  A    between atoms: C6_8  and  C15_17 
REMARK   20  A    between atoms: C7_9  and  C14_16 
REMARK   21  A    between atoms: C8_10  and  C10_12 
REMARK   22  A    between atoms: C9_11  and  C13_15 
REMARK   23  A    between atoms: C10_12  and  C11_13 
REMARK   24  A    between atoms: C10_12  and  C12_14 
REMARK   25  A    between atoms: C13_15  and  C14_16 
REMARK   26  A    between atoms: C13_15  and  C16_18 
REMARK   27  A    between atoms: C13_15  and  C19_21 
REMARK   28  A    between atoms: C13_15  and  C20_22 
REMARK   29  A    between atoms: C14_16  and  C17_19 
REMARK   30  A    between atoms: C15_17  and  C16_18 
REMARK   31  A    between atoms: C16_18  and  C20_22 
REMARK   32  A    between atoms: C17_19  and  C18_20 
REMARK   33  A    between atoms: C18_20  and  C20_22 
ROOT
HETATM    1  O1  UNL     1     -37.000  15.834  50.514  1.00  0.00     0.000 OA
HETATM    2  O2  UNL     1     -40.958  10.633  50.511  1.00  0.00     0.000 OA
HETATM    3  C1  UNL     1     -37.346  13.733  50.514  1.00  0.00     0.000 A 
HETATM    4  C2  UNL     1     -37.878  13.103  50.514  1.00  0.00     0.000 A 
HETATM    5  C3  UNL     1     -37.625  14.509  50.514  1.00  0.00     0.000 A 
HETATM    6  C4  UNL     1     -38.690  13.249  50.513  1.00  0.00     0.000 A 
HETATM    7  C5  UNL     1     -38.437  14.655  50.513  1.00  0.00     0.000 A 
HETATM    8  C6  UNL     1     -38.970  14.025  50.512  1.00  0.00     0.000 A 
HETATM    9  C7  UNL     1     -39.255  12.601  50.512  1.00  0.00     0.000 A 
HETATM   10  C8  UNL     1     -36.526  13.761  50.516  1.00  0.00     0.000 A 
HETATM   11  C9  UNL     1     -37.574  12.299  50.515  1.00  0.00     0.000 A 
HETATM   12  C10 UNL     1     -36.976  15.010  50.515  1.00  0.00     0.000 A 
HETATM   13  C11 UNL     1     -36.298  14.548  50.516  1.00  0.00     0.000 A 
HETATM   14  C12 UNL     1     -37.905  15.286  50.513  1.00  0.00     0.000 C 
HETATM   15  C13 UNL     1     -38.970  11.790  50.513  1.00  0.00     0.000 A 
HETATM   16  C14 UNL     1     -38.124  11.639  50.514  1.00  0.00     0.000 A 
HETATM   17  C15 UNL     1     -39.528  13.380  50.512  1.00  0.00     0.000 A 
HETATM   18  C16 UNL     1     -40.132  12.780  50.511  1.00  0.00     0.000 A 
HETATM   19  C17 UNL     1     -39.543  11.102  50.512  1.00  0.00     0.000 A 
HETATM   20  C18 UNL     1     -40.720  12.105  50.511  1.00  0.00     0.000 A 
HETATM   21  C19 UNL     1     -37.842  10.863  50.515  1.00  0.00     0.000 A 
HETATM   22  C20 UNL     1     -40.423  11.260  50.511  1.00  0.00     0.000 A 
ENDROOT
TORSDOF 33
ENDMDL
