MODEL 1
REMARK VINA RESULT:     416.4      0.000      0.000
REMARK  25 active torsions:
REMARK  status: ('A' for Active; 'I' for Inactive)
REMARK    1  A    between atoms: O1_1  and  C3_12 
REMARK    2  A    between atoms: O1_1  and  C6_15 
REMARK    3  A    between atoms: O1_1  and  C10_19 
REMARK    4  A    between atoms: O2_2  and  C4_13 
REMARK    5  A    between atoms: O3_3  and  N4_8 
REMARK    6  A    between atoms: N1_5  and  N5_9 
REMARK    7  A    between atoms: N1_5  and  C5_14 
REMARK    8  A    between atoms: N1_5  and  C8_17 
REMARK    9  A    between atoms: N2_6  and  C11_20 
REMARK   10  A    between atoms: N3_7  and  N4_8 
REMARK   11  A    between atoms: N4_8  and  C9_18 
REMARK   12  A    between atoms: N4_8  and  C4_13 
REMARK   13  A    between atoms: N5_9  and  C6_15 
REMARK   14  A    between atoms: C1_10  and  C10_19 
REMARK   15  A    between atoms: C2_11  and  C3_12 
REMARK   16  A    between atoms: C4_13  and  C8_17 
REMARK   17  A    between atoms: C4_13  and  C6_15 
REMARK   18  A    between atoms: C4_13  and  C9_18 
REMARK   19  A    between atoms: C5_14  and  C6_15 
REMARK   20  A    between atoms: C5_14  and  C8_17 
REMARK   21  A    between atoms: C7_16  and  C10_19 
REMARK   22  A    between atoms: C8_17  and  C9_18 
REMARK   23  A    between atoms: C9_18  and  C12_21 
REMARK   24  A    between atoms: C9_18  and  C13_22 
REMARK   25  A    between atoms: C10_19  and  C11_20 
ROOT
HETATM    1  O1  UNL     1     -38.582  13.882  49.750  1.00  0.00     0.000 OA
HETATM    2  O3  UNL     1     -35.411  10.240  48.964  1.00  0.00     0.000 OA
HETATM    3  O4  UNL     1     -41.313  15.827  48.002  1.00  0.00    -0.357 OA
HETATM    4  N1  UNL     1     -37.630  12.644  49.221  1.00  0.00     0.000 N 
HETATM    5  N2  UNL     1     -39.709  14.545  48.744  1.00  0.00     0.000 N 
HETATM    6  N3  UNL     1     -36.084  11.280  49.675  1.00  0.00     0.000 N 
HETATM    7  N5  UNL     1     -36.880  12.399  50.289  1.00  0.00     0.130 N 
HETATM    8  C1  UNL     1     -38.669  13.594  48.982  1.00  0.00     0.011 A 
HETATM    9  C2  UNL     1     -38.193  12.975  48.718  1.00  0.00     0.062 A 
HETATM   10  C3  UNL     1     -39.233  13.926  48.480  1.00  0.00     0.034 A 
HETATM   11  C4  UNL     1     -37.120  12.029  49.035  1.00  0.00     0.201 A 
HETATM   12  C5  UNL     1     -36.654  11.877  49.699  1.00  0.00     0.199 A 
HETATM   13  C6  UNL     1     -37.481  12.872  49.995  1.00  0.00     0.245 A 
HETATM   14  C7  UNL     1     -40.272  14.876  48.241  1.00  0.00     0.120 A 
HETATM   15  C9  UNL     1     -35.981  10.836  48.987  1.00  0.00     0.058 A 
HETATM   16  C10 UNL     1     -39.622  14.833  49.512  1.00  0.00     0.055 A 
HETATM   17  C11 UNL     1     -40.749  15.496  48.506  1.00  0.00     0.142 A 
HETATM   18  C12 UNL     1     -35.618  11.128  50.339  1.00  0.00     0.035 A 
ENDROOT
BRANCH   4  19
HETATM   19  C8  UNL     1     -37.016  11.585  48.348  1.00  0.00     0.059 A 
HETATM   20  O2  UNL     1     -37.712  11.381  47.955  1.00  0.00     0.000 OA
HETATM   21  N4  UNL     1     -36.310  11.199  48.164  1.00  0.00     0.000 N 
HETATM   22  C13 UNL     1     -36.300  10.610  47.587  1.00  0.00     0.007 A 
ENDBRANCH   4  19
TORSDOF 25
ENDMDL
