MODEL 1
REMARK VINA RESULT:     463.8      0.000      0.000
REMARK  22 active torsions:
REMARK  status: ('A' for Active; 'I' for Inactive)
REMARK    1  A    between atoms: O1_1  and  N1_4 
REMARK    2  A    between atoms: N1_4  and  C4_8 
REMARK    3  A    between atoms: C1_5  and  C6_10 
REMARK    4  A    between atoms: C2_6  and  C5_9 
REMARK    5  A    between atoms: C4_8  and  C16_20 
REMARK    6  A    between atoms: C5_9  and  C10_14 
REMARK    7  A    between atoms: C5_9  and  C17_21 
REMARK    8  A    between atoms: C6_10  and  C9_13 
REMARK    9  A    between atoms: C6_10  and  C18_22 
REMARK   10  A    between atoms: C8_12  and  C9_13 
REMARK   11  A    between atoms: C8_12  and  C13_17 
REMARK   12  A    between atoms: C9_13  and  C10_14 
REMARK   13  A    between atoms: C9_13  and  C12_16 
REMARK   14  A    between atoms: C9_13  and  C17_21 
REMARK   15  A    between atoms: C10_14  and  C11_15 
REMARK   16  A    between atoms: C10_14  and  C15_19 
REMARK   17  A    between atoms: C11_15  and  C14_18 
REMARK   18  A    between atoms: C11_15  and  C18_22 
REMARK   19  A    between atoms: C12_16  and  C13_17 
REMARK   20  A    between atoms: C13_17  and  C17_21 
REMARK   21  A    between atoms: C14_18  and  C15_19 
REMARK   22  A    between atoms: C15_19  and  C18_22 
ROOT
HETATM    1  O1  UNL     1     -38.605  12.822  48.401  1.00  0.00     0.000 OA
HETATM    2  O2  UNL     1     -40.942  11.000  47.648  1.00  0.00    -0.310 OA
HETATM    3  O3  UNL     1     -40.165  10.224  48.563  1.00  0.00    -0.310 OA
HETATM    4  N1  UNL     1     -37.880  12.097  49.255  1.00  0.00     0.000 N 
HETATM    5  C1  UNL     1     -37.957  13.276  48.634  1.00  0.00     0.005 A 
HETATM    6  C2  UNL     1     -37.509  12.827  49.163  1.00  0.00     0.005 A 
HETATM    7  C3  UNL     1     -38.557  12.093  48.785  1.00  0.00     0.057 A 
HETATM    8  C4  UNL     1     -39.094  11.470  48.711  1.00  0.00     0.113 A 
HETATM    9  C5  UNL     1     -37.787  14.043  48.384  1.00  0.00     0.000 A 
HETATM   10  C6  UNL     1     -36.812  13.068  49.533  1.00  0.00     0.000 A 
HETATM   11  C7  UNL     1     -39.749  11.547  48.217  1.00  0.00     0.201 A 
HETATM   12  C8  UNL     1     -38.289  14.423  47.851  1.00  0.00     0.000 A 
HETATM   13  C9  UNL     1     -37.115  14.430  48.666  1.00  0.00     0.000 A 
HETATM   14  C10 UNL     1     -36.504  13.820  49.386  1.00  0.00     0.000 A 
HETATM   15  C11 UNL     1     -36.422  12.557  50.051  1.00  0.00     0.000 A 
HETATM   16  C12 UNL     1     -38.118  15.191  47.600  1.00  0.00     0.000 A 
HETATM   17  C13 UNL     1     -36.945  15.197  48.415  1.00  0.00     0.000 A 
HETATM   18  C14 UNL     1     -35.808  14.060  49.756  1.00  0.00     0.000 A 
HETATM   19  C15 UNL     1     -35.725  12.798  50.421  1.00  0.00     0.000 A 
HETATM   20  C16 UNL     1     -40.285  10.923  48.143  1.00  0.00     0.239 A 
HETATM   21  C17 UNL     1     -37.447  15.578  47.882  1.00  0.00     0.000 A 
HETATM   22  C18 UNL     1     -35.418  13.549  50.274  1.00  0.00     0.000 A 
ENDROOT
TORSDOF 22
ENDMDL
