MODEL 1
REMARK VINA RESULT:      52.7      0.000      0.000
REMARK  2 active torsions:
REMARK  status: ('A' for Active; 'I' for Inactive)
REMARK    1  A    between atoms: O2_2  and  C4_8 
REMARK    2  A    between atoms: C1_5  and  C4_8 
ROOT
HETATM    1  O1  UNL     1     -40.446  15.452  48.370  1.00  0.00     0.000 OA
HETATM    2  O2  UNL     1     -37.563  15.513  49.096  1.00  0.00     0.000 OA
HETATM    3  O3  UNL     1     -40.453  15.622  49.788  1.00  0.00    -0.357 OA
HETATM    4  N1  UNL     1     -36.745  15.677  50.520  1.00  0.00    -0.295 NA
HETATM    5  C1  UNL     1     -38.803  15.609  49.798  1.00  0.00     0.097 A 
HETATM    6  C2  UNL     1     -39.212  15.527  49.087  1.00  0.00     0.141 A 
HETATM    7  C3  UNL     1     -37.979  15.602  49.803  1.00  0.00     0.131 A 
HETATM    8  C4  UNL     1     -37.570  15.683  50.515  1.00  0.00     0.127 A 
HETATM    9  C5  UNL     1     -40.037  15.534  49.081  1.00  0.00     0.123 A 
HETATM   10  C6  UNL     1     -41.271  15.459  48.364  1.00  0.00     0.032 A 
ENDROOT
TORSDOF 2
ENDMDL
