MODEL 1
REMARK VINA RESULT:     165.1      0.000      0.000
REMARK  23 active torsions:
REMARK  status: ('A' for Active; 'I' for Inactive)
REMARK    1  A    between atoms: S1_1  and  O2_3 
REMARK    2  A    between atoms: S1_1  and  N2_5 
REMARK    3  A    between atoms: S1_1  and  N6_9 
REMARK    4  A    between atoms: S1_1  and  C2_12 
REMARK    5  A    between atoms: S1_1  and  C4_14 
REMARK    6  A    between atoms: S1_1  and  C7_17 
REMARK    7  A    between atoms: N1_4  and  N3_6 
REMARK    8  A    between atoms: N1_4  and  C4_14 
REMARK    9  A    between atoms: N2_5  and  N5_8 
REMARK   10  A    between atoms: N2_5  and  C6_16 
REMARK   11  A    between atoms: N3_6  and  C1_11 
REMARK   12  A    between atoms: N4_7  and  N7_10 
REMARK   13  A    between atoms: N4_7  and  C2_12 
REMARK   14  A    between atoms: N4_7  and  C7_17 
REMARK   15  A    between atoms: N6_9  and  C1_11 
REMARK   16  A    between atoms: N7_10  and  C9_19 
REMARK   17  A    between atoms: C1_11  and  C4_14 
REMARK   18  A    between atoms: C2_12  and  C9_19 
REMARK   19  A    between atoms: C3_13  and  C6_16 
REMARK   20  A    between atoms: C3_13  and  C7_17 
REMARK   21  A    between atoms: C5_15  and  C7_17 
REMARK   22  A    between atoms: C6_16  and  C9_19 
REMARK   23  A    between atoms: C7_17  and  C9_19 
ROOT
HETATM    1  S1  UNL     1     -39.740  13.630  48.881  1.00  0.00    -0.140 SA
HETATM    2  O1  UNL     1     -39.450  11.314  47.695  1.00  0.00    -0.216 OA
HETATM    3  O2  UNL     1     -38.869  12.268  48.587  1.00  0.00     0.000 OA
HETATM    4  N1  UNL     1     -40.992  13.552  48.114  1.00  0.00     0.000 N 
HETATM    5  N2  UNL     1     -38.676  14.519  50.013  1.00  0.00     0.000 N 
HETATM    6  N3  UNL     1     -40.806  12.366  47.529  1.00  0.00     0.000 N 
HETATM    7  N4  UNL     1     -40.645  14.729  49.002  1.00  0.00     0.000 N 
HETATM    8  N5  UNL     1     -38.983  15.703  50.528  1.00  0.00     0.200 N 
HETATM    9  N6  UNL     1     -39.488  12.035  48.094  1.00  0.00     0.000 N 
HETATM   10  N7  UNL     1     -40.314  15.838  49.840  1.00  0.00     0.198 N 
HETATM   11  C1  UNL     1     -40.262  13.257  48.362  1.00  0.00     0.075 A 
HETATM   12  C2  UNL     1     -39.409  14.738  49.719  1.00  0.00     0.372 A 
HETATM   13  C3  UNL     1     -39.931  14.365  49.200  1.00  0.00     0.164 A 
HETATM   14  C4  UNL     1     -40.147  12.524  48.000  1.00  0.00     0.158 A 
HETATM   15  C5  UNL     1     -41.327  13.000  47.599  1.00  0.00     0.058 A 
HETATM   16  C6  UNL     1     -39.600  15.474  50.039  1.00  0.00     0.408 A 
HETATM   17  C7  UNL     1     -41.328  14.270  48.341  1.00  0.00     0.080 A 
HETATM   18  C8  UNL     1     -38.413  15.114  50.512  1.00  0.00     0.345 A 
HETATM   19  C9  UNL     1     -40.836  15.465  49.322  1.00  0.00     0.298 A 
ENDROOT
TORSDOF 23
ENDMDL
