MODEL 1
REMARK VINA RESULT:      50.7      0.000      0.000
REMARK  15 active torsions:
REMARK  status: ('A' for Active; 'I' for Inactive)
REMARK    1  A    between atoms: O2_2  and  C3_6 
REMARK    2  A    between atoms: N1_3  and  C2_5 
REMARK    3  A    between atoms: C1_4  and  C6_9 
REMARK    4  A    between atoms: C1_4  and  C9_12 
REMARK    5  A    between atoms: C2_5  and  C5_8 
REMARK    6  A    between atoms: C2_5  and  C8_11 
REMARK    7  A    between atoms: C3_6  and  C4_7 
REMARK    8  A    between atoms: C3_6  and  C6_9 
REMARK    9  A    between atoms: C3_6  and  C7_10 
REMARK   10  A    between atoms: C3_6  and  C8_11 
REMARK   11  A    between atoms: C3_6  and  C9_12 
REMARK   12  A    between atoms: C4_7  and  C5_8 
REMARK   13  A    between atoms: C5_8  and  C6_9 
REMARK   14  A    between atoms: C7_10  and  C8_11 
REMARK   15  A    between atoms: C8_11  and  C9_12 
ROOT
HETATM    1  O1  UNL     1     -41.012  13.980  47.980  1.00  0.00    -0.359 OA
HETATM    2  O2  UNL     1     -39.669  14.244  48.392  1.00  0.00     0.000 OA
HETATM    3  N1  UNL     1     -41.325  15.777  50.329  1.00  0.00    -0.275 NA
HETATM    4  C1  UNL     1     -40.232  15.196  49.617  1.00  0.00     0.069 A 
HETATM    5  C2  UNL     1     -40.088  15.684  50.266  1.00  0.00     0.061 A 
HETATM    6  C3  UNL     1     -39.600  14.860  49.205  1.00  0.00     0.071 A 
HETATM    7  C4  UNL     1     -39.313  15.836  50.504  1.00  0.00     0.036 A 
HETATM    8  C5  UNL     1     -38.825  15.012  49.443  1.00  0.00     0.036 A 
HETATM    9  C6  UNL     1     -38.681  15.501  50.093  1.00  0.00     0.036 A 
HETATM   10  C7  UNL     1     -40.762  14.826  49.104  1.00  0.00     0.112 A 
HETATM   11  C8  UNL     1     -41.044  15.301  49.717  1.00  0.00     0.092 A 
HETATM   12  C9  UNL     1     -40.481  14.350  48.492  1.00  0.00     0.122 A 
ENDROOT
TORSDOF 15
ENDMDL
MODEL 2
REMARK VINA RESULT:      51.2      1.309      1.706
REMARK  15 active torsions:
REMARK  status: ('A' for Active; 'I' for Inactive)
REMARK    1  A    between atoms: O2_2  and  C3_6 
REMARK    2  A    between atoms: N1_3  and  C2_5 
REMARK    3  A    between atoms: C1_4  and  C6_9 
REMARK    4  A    between atoms: C1_4  and  C9_12 
REMARK    5  A    between atoms: C2_5  and  C5_8 
REMARK    6  A    between atoms: C2_5  and  C8_11 
REMARK    7  A    between atoms: C3_6  and  C4_7 
REMARK    8  A    between atoms: C3_6  and  C6_9 
REMARK    9  A    between atoms: C3_6  and  C7_10 
REMARK   10  A    between atoms: C3_6  and  C8_11 
REMARK   11  A    between atoms: C3_6  and  C9_12 
REMARK   12  A    between atoms: C4_7  and  C5_8 
REMARK   13  A    between atoms: C5_8  and  C6_9 
REMARK   14  A    between atoms: C7_10  and  C8_11 
REMARK   15  A    between atoms: C8_11  and  C9_12 
ROOT
HETATM    1  O1  UNL     1     -40.785  13.178  47.609  1.00  0.00    -0.359 OA
HETATM    2  O2  UNL     1     -41.325  13.456  48.902  1.00  0.00     0.000 OA
HETATM    3  N1  UNL     1     -39.620  15.821  48.316  1.00  0.00    -0.275 NA
HETATM    4  C1  UNL     1     -40.505  14.887  48.937  1.00  0.00     0.069 A 
HETATM    5  C2  UNL     1     -40.306  15.587  49.325  1.00  0.00     0.061 A 
HETATM    6  C3  UNL     1     -41.016  14.347  49.296  1.00  0.00     0.071 A 
HETATM    7  C4  UNL     1     -40.618  15.748  50.072  1.00  0.00     0.036 A 
HETATM    8  C5  UNL     1     -41.328  14.508  50.043  1.00  0.00     0.036 A 
HETATM    9  C6  UNL     1     -41.129  15.209  50.431  1.00  0.00     0.036 A 
HETATM   10  C7  UNL     1     -40.440  14.390  48.282  1.00  0.00     0.112 A 
HETATM   11  C8  UNL     1     -40.030  15.106  48.299  1.00  0.00     0.092 A 
HETATM   12  C9  UNL     1     -40.851  13.674  48.265  1.00  0.00     0.122 A 
ENDROOT
TORSDOF 15
ENDMDL
