MODEL 1
REMARK VINA RESULT:     333.7      0.000      0.000
REMARK  0 active torsions:
REMARK  status: ('A' for Active; 'I' for Inactive)
ROOT
HETATM    1  O1  UNL     1     -41.274  10.245  50.507  1.00  0.00    -0.310 OA
HETATM    2  O2  UNL     1     -41.082  10.432  49.102  1.00  0.00    -0.310 OA
HETATM    3  C1  UNL     1     -40.884  10.618  49.881  1.00  0.00     0.239 A 
HETATM    4  C2  UNL     1     -40.296  11.177  50.036  1.00  0.00     0.201 A 
HETATM    5  C3  UNL     1     -39.907  11.549  49.411  1.00  0.00     0.104 A 
HETATM    6  C4  UNL     1     -39.320  12.107  49.566  1.00  0.00     0.057 A 
HETATM    7  C5  UNL     1     -38.930  12.479  48.940  1.00  0.00     0.014 A 
HETATM    8  C6  UNL     1     -38.343  13.037  49.095  1.00  0.00     0.005 A 
HETATM    9  C7  UNL     1     -37.953  13.410  48.470  1.00  0.00     0.001 A 
HETATM   10  C8  UNL     1     -37.365  13.969  48.624  1.00  0.00     0.000 A 
HETATM   11  C9  UNL     1     -36.976  14.340  47.999  1.00  0.00     0.000 A 
HETATM   12  C10 UNL     1     -36.388  14.899  48.154  1.00  0.00     0.000 A 
HETATM   13  C11 UNL     1     -35.999  15.271  47.529  1.00  0.00     0.000 A 
HETATM   14  C12 UNL     1     -35.411  15.830  47.683  1.00  0.00     0.000 A 
ENDROOT
TORSDOF 0
ENDMDL
