MODEL 1
REMARK VINA RESULT:     429.1      0.000      0.000
REMARK  32 active torsions:
REMARK  status: ('A' for Active; 'I' for Inactive)
REMARK    1  A    between atoms: C3_3  and  O2_7 
REMARK    2  A    between atoms: O1_4  and  N1_5 
REMARK    3  A    between atoms: O1_4  and  S1_6 
REMARK    4  A    between atoms: O1_4  and  O2_7 
REMARK    5  A    between atoms: O2_7  and  C9_14 
REMARK    6  A    between atoms: O3_8  and  C4_9 
REMARK    7  A    between atoms: O3_8  and  C5_10 
REMARK    8  A    between atoms: C4_9  and  C7_12 
REMARK    9  A    between atoms: C4_9  and  C8_13 
REMARK   10  A    between atoms: C5_10  and  C8_13 
REMARK   11  A    between atoms: C5_10  and  C9_14 
REMARK   12  A    between atoms: C6_11  and  C9_14 
REMARK   13  A    between atoms: C6_11  and  C19_26 
REMARK   14  A    between atoms: C7_12  and  C9_14 
REMARK   15  A    between atoms: C7_12  and  C18_25 
REMARK   16  A    between atoms: C8_13  and  C9_14 
REMARK   17  A    between atoms: C8_13  and  C10_15 
REMARK   18  A    between atoms: C8_13  and  C13_20 
REMARK   19  A    between atoms: C8_13  and  C18_25 
REMARK   20  A    between atoms: C11_16  and  C12_17 
REMARK   21  A    between atoms: C11_16  and  N2_19 
REMARK   22  A    between atoms: C12_17  and  O4_18 
REMARK   23  A    between atoms: O4_18  and  N2_19 
REMARK   24  A    between atoms: O4_18  and  C19_26 
REMARK   25  A    between atoms: N2_19  and  C13_20 
REMARK   26  A    between atoms: C13_20  and  C16_23 
REMARK   27  A    between atoms: C13_20  and  C17_24 
REMARK   28  A    between atoms: C14_21  and  C17_24 
REMARK   29  A    between atoms: C14_21  and  C18_25 
REMARK   30  A    between atoms: C15_22  and  C18_25 
REMARK   31  A    between atoms: C16_23  and  C18_25 
REMARK   32  A    between atoms: C17_24  and  C18_25 
ROOT
HETATM    1  C1  UNL     1     -35.362  15.645  50.274  1.00  0.00    -0.042 A 
HETATM    2  C2  UNL     1     -36.160  15.835  50.187  1.00  0.00     0.035 A 
HETATM    3  C3  UNL     1     -36.681  15.288  49.855  1.00  0.00     0.054 A 
HETATM    4  O1  UNL     1     -36.404  14.551  49.610  1.00  0.00     0.000 OA
HETATM    5  N1  UNL     1     -37.479  15.478  49.768  1.00  0.00     0.000 N 
HETATM    6  S1  UNL     1     -38.000  14.931  49.436  1.00  0.00    -0.206 SA
HETATM    7  O2  UNL     1     -37.379  14.395  49.345  1.00  0.00     0.000 OA
HETATM    8  O3  UNL     1     -38.621  15.466  49.527  1.00  0.00     0.000 OA
HETATM    9  C4  UNL     1     -38.521  14.384  49.104  1.00  0.00     0.029 A 
HETATM   10  C5  UNL     1     -39.319  14.575  49.018  1.00  0.00     0.029 A 
HETATM   11  C6  UNL     1     -39.839  14.027  48.686  1.00  0.00     0.020 A 
HETATM   12  C7  UNL     1     -39.562  13.290  48.441  1.00  0.00     0.017 A 
HETATM   13  C8  UNL     1     -38.764  13.100  48.528  1.00  0.00     0.018 A 
HETATM   14  C9  UNL     1     -38.244  13.646  48.859  1.00  0.00     0.029 A 
HETATM   15  C10 UNL     1     -40.083  12.743  48.109  1.00  0.00     0.005 A 
HETATM   16  C11 UNL     1     -40.892  12.854  47.988  1.00  0.00     0.002 A 
HETATM   17  C12 UNL     1     -39.887  11.988  47.840  1.00  0.00     0.002 A 
HETATM   18  O4  UNL     1     -41.195  12.169  47.644  1.00  0.00     0.000 OA
HETATM   19  N2  UNL     1     -40.574  11.634  47.553  1.00  0.00     0.000 N 
HETATM   20  C13 UNL     1     -39.136  11.648  47.856  1.00  0.00     0.002 A 
HETATM   21  C14 UNL     1     -39.023  10.883  47.565  1.00  0.00     0.000 A 
HETATM   22  C15 UNL     1     -38.272  10.543  47.581  1.00  0.00     0.000 A 
HETATM   23  C16 UNL     1     -37.633  10.967  47.887  1.00  0.00     0.000 A 
HETATM   24  C17 UNL     1     -37.746  11.731  48.177  1.00  0.00     0.000 A 
HETATM   25  C18 UNL     1     -38.497  12.071  48.161  1.00  0.00     0.003 A 
HETATM   26  C19 UNL     1     -41.321  13.533  48.177  1.00  0.00     0.002 A 
ENDROOT
TORSDOF 32
ENDMDL
