MODEL 1
REMARK VINA RESULT:     200.4      0.000      0.000
REMARK  19 active torsions:
REMARK  status: ('A' for Active; 'I' for Inactive)
REMARK    1  A    between atoms: C1_2  and  C4_5 
REMARK    2  A    between atoms: C1_2  and  C13_16 
REMARK    3  A    between atoms: C2_3  and  C13_16 
REMARK    4  A    between atoms: C2_3  and  C14_17 
REMARK    5  A    between atoms: C3_4  and  C6_7 
REMARK    6  A    between atoms: C3_4  and  C14_17 
REMARK    7  A    between atoms: C4_5  and  C14_17 
REMARK    8  A    between atoms: C5_6  and  C12_15 
REMARK    9  A    between atoms: C5_6  and  C13_16 
REMARK   10  A    between atoms: C7_8  and  C10_12 
REMARK   11  A    between atoms: C7_8  and  C11_13 
REMARK   12  A    between atoms: C8_9  and  C11_13 
REMARK   13  A    between atoms: C8_9  and  C12_15 
REMARK   14  A    between atoms: C9_10  and  C12_15 
REMARK   15  A    between atoms: O2_11  and  C10_12 
REMARK   16  A    between atoms: C10_12  and  C12_15 
REMARK   17  A    between atoms: C11_13  and  C12_15 
REMARK   18  A    between atoms: O3_14  and  C12_15 
REMARK   19  A    between atoms: C13_16  and  C14_17 
ROOT
HETATM    1  O1  UNL     1     -35.517  15.065  50.453  1.00  0.00     0.000 OA
HETATM    2  C1  UNL     1     -36.284  15.056  50.148  1.00  0.00     0.000 A 
HETATM    3  C2  UNL     1     -36.628  14.343  49.917  1.00  0.00     0.000 A 
HETATM    4  C3  UNL     1     -37.394  14.334  49.613  1.00  0.00     0.000 A 
HETATM    5  C4  UNL     1     -37.817  15.037  49.539  1.00  0.00     0.000 A 
HETATM    6  C5  UNL     1     -38.584  15.028  49.235  1.00  0.00     0.000 A 
HETATM    7  C6  UNL     1     -38.927  14.315  49.004  1.00  0.00     0.000 A 
HETATM    8  C7  UNL     1     -39.695  14.306  48.699  1.00  0.00     0.000 A 
HETATM    9  C8  UNL     1     -40.038  13.591  48.469  1.00  0.00     0.000 A 
HETATM   10  C9  UNL     1     -40.804  13.582  48.164  1.00  0.00     0.000 A 
HETATM   11  O2  UNL     1     -41.148  12.869  47.934  1.00  0.00     0.000 OA
HETATM   12  C10 UNL     1     -41.228  14.287  48.091  1.00  0.00     0.000 A 
HETATM   13  C11 UNL     1     -40.884  15.000  48.321  1.00  0.00     0.000 A 
HETATM   14  O3  UNL     1     -41.307  15.704  48.247  1.00  0.00     0.000 OA
HETATM   15  C12 UNL     1     -40.117  15.010  48.626  1.00  0.00     0.000 A 
HETATM   16  C13 UNL     1     -37.473  15.751  49.770  1.00  0.00     0.000 A 
HETATM   17  C14 UNL     1     -36.707  15.760  50.074  1.00  0.00     0.000 A 
ENDROOT
TORSDOF 19
ENDMDL
