MODEL 1
REMARK VINA RESULT:      37.4      0.000      0.000
REMARK  13 active torsions:
REMARK  status: ('A' for Active; 'I' for Inactive)
REMARK    1  A    between atoms: C1_1  and  C9_10 
REMARK    2  A    between atoms: C2_2  and  C6_7 
REMARK    3  A    between atoms: C2_2  and  C8_9 
REMARK    4  A    between atoms: C3_3  and  C4_4 
REMARK    5  A    between atoms: C3_3  and  C5_5 
REMARK    6  A    between atoms: C3_3  and  C7_8 
REMARK    7  A    between atoms: C3_3  and  C9_10 
REMARK    8  A    between atoms: C5_5  and  O1_6 
REMARK    9  A    between atoms: C5_5  and  C6_7 
REMARK   10  A    between atoms: O1_6  and  C8_9 
REMARK   11  A    between atoms: C6_7  and  C9_10 
REMARK   12  A    between atoms: C6_7  and  C10_11 
REMARK   13  A    between atoms: C7_8  and  C8_9 
ROOT
HETATM    1  C1  UNL     1     -38.849  15.804  49.778  1.00  0.00     0.000 A 
HETATM    2  C2  UNL     1     -39.242  15.806  49.053  1.00  0.00     0.000 A 
HETATM    3  C3  UNL     1     -39.279  15.787  50.481  1.00  0.00     0.000 A 
HETATM    4  C4  UNL     1     -38.024  15.820  49.799  1.00  0.00     0.000 A 
HETATM    5  C5  UNL     1     -40.068  15.790  49.032  1.00  0.00     0.000 A 
HETATM    6  O1  UNL     1     -38.812  15.823  48.350  1.00  0.00     0.000 OA
HETATM    7  C6  UNL     1     -40.104  15.772  50.460  1.00  0.00     0.000 A 
HETATM    8  C7  UNL     1     -37.629  15.819  50.524  1.00  0.00     0.000 A 
HETATM    9  C8  UNL     1     -37.593  15.837  49.095  1.00  0.00     0.000 A 
HETATM   10  C9  UNL     1     -40.498  15.773  49.736  1.00  0.00     0.000 A 
HETATM   11  C10 UNL     1     -41.322  15.757  49.715  1.00  0.00     0.000 A 
ENDROOT
TORSDOF 13
ENDMDL
