MODEL 1
REMARK VINA RESULT:      -5.3      0.000      0.000
REMARK  1 active torsions:
REMARK  status: ('A' for Active; 'I' for Inactive)
REMARK    1  A    between atoms: C1_1  and  C7_7 
ROOT
ATOM      1  C1  UNK d           7.865   8.709   5.424  0.00  0.00     0.102 A 
ATOM      2  C2  UNK d           7.811   8.958   4.639  0.00  0.00     0.203 A 
ATOM      3  C3  UNK d           7.363   9.018   5.999  0.00  0.00     0.303 A 
ATOM      4  O4  UNK d           6.802   9.583   5.774  0.00  0.00    -0.273 OA
ATOM      5  C5  UNK d           7.252   9.518   4.430  0.00  0.00     0.062 A 
ATOM      6  C6  UNK d           6.748   9.832   4.989  0.00  0.00     0.106 A 
ATOM      7  O8  UNK d           7.417   8.769   6.784  0.00  0.00    -0.259 OA
ATOM      8  O9  UNK d           8.321   8.641   4.070  0.00  0.00    -0.286 OA
ATOM      9  C10 UNK d           7.202   9.761   3.656  0.00  0.00     0.005 A 
ATOM     10  C11 UNK d           6.194  10.388   4.779  0.00  0.00     0.025 A 
ATOM     11  C14 UNK d           6.648  10.319   3.438  0.00  0.00     0.000 A 
ATOM     12  C15 UNK d           6.141  10.633   4.006  0.00  0.00     0.002 A 
ENDROOT
BRANCH   1  13
ATOM     13  C7  UNK d           8.428   8.145   5.635  0.00  0.00     0.008 A 
ATOM     14  C12 UNK d           8.245   7.338   5.573  0.00  0.00     0.000 A 
ATOM     15  C17 UNK d           8.803   6.775   5.782  0.00  0.00     0.000 A 
ATOM     16  C18 UNK d           9.552   7.008   6.057  0.00  0.00     0.000 A 
ATOM     17  C16 UNK d           9.728   7.812   6.116  0.00  0.00     0.000 A 
ATOM     18  C13 UNK d           9.165   8.380   5.905  0.00  0.00     0.000 A 
ENDBRANCH   1  13
TORSDOF 1
ENDMDL
MODEL 2
REMARK VINA RESULT:      -4.7      1.797      3.675
REMARK  1 active torsions:
REMARK  status: ('A' for Active; 'I' for Inactive)
REMARK    1  A    between atoms: C1_1  and  C7_7 
ROOT
ATOM      1  C1  UNK d           8.797   8.171   6.330  0.00  0.00     0.102 A 
ATOM      2  C2  UNK d           8.364   8.225   7.030  0.00  0.00     0.203 A 
ATOM      3  C3  UNK d           9.620   8.149   6.345  0.00  0.00     0.303 A 
ATOM      4  O4  UNK d          10.005   8.183   7.077  0.00  0.00    -0.273 OA
ATOM      5  C5  UNK d           8.757   8.258   7.747  0.00  0.00     0.062 A 
ATOM      6  C6  UNK d           9.572   8.238   7.777  0.00  0.00     0.106 A 
ATOM      7  O8  UNK d          10.054   8.094   5.645  0.00  0.00    -0.259 OA
ATOM      8  O9  UNK d           7.537   8.247   7.003  0.00  0.00    -0.286 OA
ATOM      9  C10 UNK d           8.327   8.312   8.435  0.00  0.00     0.005 A 
ATOM     10  C11 UNK d           9.959   8.270   8.490  0.00  0.00     0.025 A 
ATOM     11  C14 UNK d           8.709   8.346   9.154  0.00  0.00     0.000 A 
ATOM     12  C15 UNK d           9.532   8.324   9.180  0.00  0.00     0.002 A 
ENDROOT
BRANCH   1  13
ATOM     13  C7  UNK d           8.401   8.137   5.607  0.00  0.00     0.008 A 
ATOM     14  C12 UNK d           8.234   7.400   5.264  0.00  0.00     0.000 A 
ATOM     15  C17 UNK d           7.840   7.365   4.545  0.00  0.00     0.000 A 
ATOM     16  C18 UNK d           7.609   8.062   4.158  0.00  0.00     0.000 A 
ATOM     17  C16 UNK d           7.779   8.791   4.504  0.00  0.00     0.000 A 
ATOM     18  C13 UNK d           8.176   8.828   5.229  0.00  0.00     0.000 A 
ENDBRANCH   1  13
TORSDOF 1
ENDMDL
MODEL 3
REMARK VINA RESULT:      -4.7      0.788      3.508
REMARK  1 active torsions:
REMARK  status: ('A' for Active; 'I' for Inactive)
REMARK    1  A    between atoms: C1_1  and  C7_7 
ROOT
ATOM      1  C1  UNK d           7.393   9.077   4.689  0.00  0.00     0.102 A 
ATOM      2  C2  UNK d           7.380   9.042   5.513  0.00  0.00     0.203 A 
ATOM      3  C3  UNK d           8.007   8.731   4.262  0.00  0.00     0.303 A 
ATOM      4  O4  UNK d           8.612   8.348   4.677  0.00  0.00    -0.273 OA
ATOM      5  C5  UNK d           7.985   8.659   5.911  0.00  0.00     0.062 A 
ATOM      6  C6  UNK d           8.599   8.313   5.501  0.00  0.00     0.106 A 
ATOM      7  O8  UNK d           8.020   8.766   3.438  0.00  0.00    -0.259 OA
ATOM      8  O9  UNK d           6.758   9.392   5.931  0.00  0.00    -0.286 OA
ATOM      9  C10 UNK d           7.969   8.627   6.723  0.00  0.00     0.005 A 
ATOM     10  C11 UNK d           9.198   7.934   5.899  0.00  0.00     0.025 A 
ATOM     11  C14 UNK d           8.566   8.249   7.129  0.00  0.00     0.000 A 
ATOM     12  C15 UNK d           9.185   7.900   6.711  0.00  0.00     0.002 A 
ENDROOT
BRANCH   1  13
ATOM     13  C7  UNK d           6.784   9.462   4.287  0.00  0.00     0.008 A 
ATOM     14  C12 UNK d           6.110   9.036   4.058  0.00  0.00     0.000 A 
ATOM     15  C17 UNK d           5.503   9.417   3.658  0.00  0.00     0.000 A 
ATOM     16  C18 UNK d           5.559  10.227   3.481  0.00  0.00     0.000 A 
ATOM     17  C16 UNK d           6.233  10.644   3.712  0.00  0.00     0.000 A 
ATOM     18  C13 UNK d           6.845  10.260   4.115  0.00  0.00     0.000 A 
ENDBRANCH   1  13
TORSDOF 1
ENDMDL
MODEL 4
REMARK VINA RESULT:      -4.6      0.826      3.208
REMARK  1 active torsions:
REMARK  status: ('A' for Active; 'I' for Inactive)
REMARK    1  A    between atoms: C1_1  and  C7_7 
ROOT
ATOM      1  C1  UNK d           7.573   8.865   5.473  0.00  0.00     0.102 A 
ATOM      2  C2  UNK d           8.333   8.551   5.403  0.00  0.00     0.203 A 
ATOM      3  C3  UNK d           7.216   8.944   6.211  0.00  0.00     0.303 A 
ATOM      4  O4  UNK d           7.635   8.703   6.882  0.00  0.00    -0.273 OA
ATOM      5  C5  UNK d           8.736   8.316   6.076  0.00  0.00     0.062 A 
ATOM      6  C6  UNK d           8.395   8.389   6.813  0.00  0.00     0.106 A 
ATOM      7  O8  UNK d           6.456   9.258   6.281  0.00  0.00    -0.259 OA
ATOM      8  O9  UNK d           8.682   8.476   4.657  0.00  0.00    -0.286 OA
ATOM      9  C10 UNK d           9.485   8.008   6.003  0.00  0.00     0.005 A 
ATOM     10  C11 UNK d           8.799   8.155   7.478  0.00  0.00     0.025 A 
ATOM     11  C14 UNK d           9.895   7.771   6.667  0.00  0.00     0.000 A 
ATOM     12  C15 UNK d           9.547   7.846   7.409  0.00  0.00     0.002 A 
ENDROOT
BRANCH   1  13
ATOM     13  C7  UNK d           7.165   9.102   4.796  0.00  0.00     0.008 A 
ATOM     14  C12 UNK d           6.698   8.552   4.385  0.00  0.00     0.000 A 
ATOM     15  C17 UNK d           6.292   8.786   3.711  0.00  0.00     0.000 A 
ATOM     16  C18 UNK d           6.346   9.569   3.438  0.00  0.00     0.000 A 
ATOM     17  C16 UNK d           6.812  10.109   3.852  0.00  0.00     0.000 A 
ATOM     18  C13 UNK d           7.222   9.875   4.531  0.00  0.00     0.000 A 
ENDBRANCH   1  13
TORSDOF 1
ENDMDL
MODEL 5
REMARK VINA RESULT:      -4.4      1.316      3.752
REMARK  1 active torsions:
REMARK  status: ('A' for Active; 'I' for Inactive)
REMARK    1  A    between atoms: C1_1  and  C7_7 
ROOT
ATOM      1  C1  UNK d           8.417   7.693   5.394  0.00  0.00     0.102 A 
ATOM      2  C2  UNK d           8.040   6.960   5.370  0.00  0.00     0.203 A 
ATOM      3  C3  UNK d           9.185   7.762   5.685  0.00  0.00     0.303 A 
ATOM      4  O4  UNK d           9.571   7.081   5.952  0.00  0.00    -0.273 OA
ATOM      5  C5  UNK d           8.434   6.294   5.638  0.00  0.00     0.062 A 
ATOM      6  C6  UNK d           9.194   6.348   5.928  0.00  0.00     0.106 A 
ATOM      7  O8  UNK d           9.562   8.496   5.709  0.00  0.00    -0.259 OA
ATOM      8  O9  UNK d           7.269   6.901   5.076  0.00  0.00    -0.286 OA
ATOM      9  C10 UNK d           8.059   5.573   5.612  0.00  0.00     0.005 A 
ATOM     10  C11 UNK d           9.582   5.685   6.193  0.00  0.00     0.025 A 
ATOM     11  C14 UNK d           8.442   4.903   5.877  0.00  0.00     0.000 A 
ATOM     12  C15 UNK d           9.210   4.962   6.170  0.00  0.00     0.002 A 
ENDROOT
BRANCH   1  13
ATOM     13  C7  UNK d           8.021   8.364   5.124  0.00  0.00     0.008 A 
ATOM     14  C12 UNK d           7.637   8.861   5.667  0.00  0.00     0.000 A 
ATOM     15  C17 UNK d           7.243   9.529   5.401  0.00  0.00     0.000 A 
ATOM     16  C18 UNK d           7.226   9.712   4.591  0.00  0.00     0.000 A 
ATOM     17  C16 UNK d           7.610   9.214   4.057  0.00  0.00     0.000 A 
ATOM     18  C13 UNK d           8.007   8.540   4.324  0.00  0.00     0.000 A 
ENDBRANCH   1  13
TORSDOF 1
ENDMDL
