REMARK  3 active torsions:
REMARK  status: ('A' for Active; 'I' for Inactive)
REMARK    1  A    between atoms: C1_1  and  C5_5 
REMARK    2  A    between atoms: C2_2  and  C5_5 
REMARK    3  A    between atoms: C5_5  and  C12_12 
ROOT
ATOM      1  C5  UNK d           3.825  -2.154   0.000  0.00  0.00     0.017 C 
ENDROOT
BRANCH   1   2
ATOM      2  C1  UNK d           3.300  -1.850   0.000  0.00  0.00     0.103 A 
ATOM      3  C3  UNK d           2.767  -2.154   0.000  0.00  0.00     0.203 A 
ATOM      4  C10 UNK d           2.250  -1.850   0.000  0.00  0.00     0.062 A 
ATOM      5  O25 UNK d           2.767  -2.754   0.000  0.00  0.00    -0.286 OA
ATOM      6  C28 UNK d           1.725  -2.154   0.000  0.00  0.00     0.005 A 
ATOM      7  C13 UNK d           2.250  -1.242   0.000  0.00  0.00     0.106 A 
ATOM      8  C31 UNK d           1.200  -1.850   0.000  0.00  0.00     0.000 A 
ATOM      9  C33 UNK d           1.200  -1.250   0.000  0.00  0.00     0.002 A 
ATOM     10  C30 UNK d           1.725  -0.942   0.000  0.00  0.00     0.025 A 
ATOM     11  O8  UNK d           2.767  -0.942   0.000  0.00  0.00    -0.273 OA
ATOM     12  C6  UNK d           3.300  -1.242   0.000  0.00  0.00     0.303 A 
ATOM     13  O18 UNK d           3.712  -0.967   0.000  0.00  0.00    -0.259 OA
ENDBRANCH   1   2
BRANCH   1  14
ATOM     14  C2  UNK d           4.350  -1.854   0.000  0.00  0.00     0.103 A 
ATOM     15  C4  UNK d           4.879  -2.154   0.000  0.00  0.00     0.203 A 
ATOM     16  C11 UNK d           5.404  -1.854   0.000  0.00  0.00     0.062 A 
ATOM     17  O24 UNK d           4.875  -2.767   0.000  0.00  0.00    -0.286 OA
ATOM     18  C27 UNK d           5.929  -2.154   0.000  0.00  0.00     0.005 A 
ATOM     19  C14 UNK d           5.404  -1.250   0.000  0.00  0.00     0.106 A 
ATOM     20  C32 UNK d           6.454  -1.854   0.000  0.00  0.00     0.000 A 
ATOM     21  C34 UNK d           6.454  -1.250   0.000  0.00  0.00     0.002 A 
ATOM     22  C29 UNK d           5.929  -0.942   0.000  0.00  0.00     0.025 A 
ATOM     23  O9  UNK d           4.875  -0.942   0.000  0.00  0.00    -0.273 OA
ATOM     24  C7  UNK d           4.350  -1.250   0.000  0.00  0.00     0.303 A 
ATOM     25  O17 UNK d           4.088  -0.812   0.000  0.00  0.00    -0.259 OA
ENDBRANCH   1  14
BRANCH   1  26
ATOM     26  C12 UNK d           3.825  -2.767   0.000  0.00  0.00     0.003 A 
ATOM     27  C15 UNK d           4.350  -3.067   0.000  0.00  0.00     0.026 A 
ATOM     28  C16 UNK d           4.342  -3.675   0.000  0.00  0.00     0.119 A 
ATOM     29  O20 UNK d           4.800  -4.088   0.000  0.00  0.00    -0.300 OA
ATOM     30  C19 UNK d           3.817  -3.979   0.000  0.00  0.00     0.119 A 
ATOM     31  C22 UNK d           4.550  -4.642   0.000  0.00  0.00     0.304 A 
ATOM     32  O21 UNK d           3.942  -4.579   0.000  0.00  0.00    -0.300 OA
ATOM     33  C26 UNK d           3.288  -3.675   0.000  0.00  0.00     0.026 A 
ATOM     34  C23 UNK d           3.292  -3.067   0.000  0.00  0.00     0.002 A 
ENDBRANCH   1  26
TORSDOF 3
