@<TRIPOS>MOLECULE
CHEMBL209453
20   21    1
SMALL
USER_CHARGES


@<TRIPOS>ATOM
      1 C1          0.3986   -5.3705    0.0000 C.ar      1 UNK         0.0000 
      2 C2          0.3974   -6.1978    0.0000 C.ar      1 UNK         0.0000 
      3 C3          1.1121   -6.6106    0.0000 C.ar      1 UNK         0.0000 
      4 C4          1.8286   -6.1973    0.0000 C.ar      1 UNK         0.0000 
      5 C5          1.8257   -5.3669    0.0000 C.ar      1 UNK         0.0000 
      6 C6          1.1103   -4.9577    0.0000 C.ar      1 UNK         0.0000 
      7 O7          2.5385   -4.9517    0.0000 O.3       1 UNK         0.0000 
      8 O8          2.5436   -6.6087    0.0000 O.3       1 UNK         0.0000 
      9 C9         -0.3174   -6.6097    0.0000 C.2       1 UNK         0.0000 
     10 C10        -1.0314   -6.1966    0.0000 C.3       1 UNK         0.0000 
     11 O11        -0.3180   -7.4346    0.0000 O.2       1 UNK         0.0000 
     12 S12        -1.7462   -6.6086    0.0000 S.3       1 UNK         0.0000 
     13 C13        -2.4603   -6.1955    0.0000 C.ar      1 UNK         0.0000 
     14 N14        -3.1770   -6.6124    0.0000 N.ar      1 UNK         0.0000 
     15 N15        -2.4607   -5.3787    0.0000 N.ar      1 UNK         0.0000 
     16 C16        -3.1740   -4.9635    0.0000 C.ar      1 UNK         0.0000 
     17 C17        -3.8897   -5.3759    0.0000 C.ar      1 UNK         0.0000 
     18 C18        -3.8920   -6.2034    0.0000 C.ar      1 UNK         0.0000 
     19 C19        -4.6061   -6.6163    0.0000 C.3       1 UNK         0.0000 
     20 O20        -3.1722   -4.1385    0.0000 O.3       1 UNK         0.0000 
@<TRIPOS>BOND
     1    1    6 ar   
     2    1    2 ar   
     3    2    3 ar   
     4    2    9 1    
     5    3    4 ar   
     6    4    8 1    
     7    4    5 ar   
     8    5    6 ar   
     9    5    7 1    
    10    9   10 1    
    11    9   11 2    
    12   10   12 1    
    13   12   13 1    
    14   13   14 ar   
    15   13   15 ar   
    16   14   18 ar   
    17   15   16 ar   
    18   16   17 ar   
    19   16   20 1    
    20   17   18 ar   
    21   18   19 1    
@<TRIPOS>SUBSTRUCTURE
     1 UNK         1 GROUP             0       ****    0 ROOT