MODEL 1
REMARK VINA RESULT:      -1.0      0.000      0.000
REMARK  4 active torsions:
REMARK  status: ('A' for Active; 'I' for Inactive)
REMARK    1  A    between atoms: C2_2  and  C4_4 
REMARK    2  A    between atoms: C4_4  and  C6_6 
REMARK    3  A    between atoms: C6_6  and  C7_7 
REMARK    4  A    between atoms: C7_7  and  C9_9 
ROOT
ATOM      1  C7  UNK d           7.858   6.652   8.118  0.00  0.00     0.104 C 
ATOM      2  O8  UNK d           9.079   7.000   8.917  0.00  0.00    -0.195 OA
ENDROOT
BRANCH   1   3
ATOM      3  C6  UNK d           6.493   6.892   8.691  0.00  0.00     0.098 C 
BRANCH   3   4
ATOM      4  C4  UNK d           5.472   5.792   8.682  0.00  0.00     0.245 C 
ATOM      5  O5  UNK d           5.646   4.601   9.576  0.00  0.00    -0.211 OA
BRANCH   4   6
ATOM      6  C2  UNK d           4.277   5.885   7.780  0.00  0.00     0.218 C 
ATOM      7  O1  UNK d           4.453   5.802   6.293  0.00  0.00    -0.645 OA
ATOM      8  O3  UNK d           2.907   6.061   8.365  0.00  0.00    -0.645 OA
ENDBRANCH   4   6
ENDBRANCH   3   4
ENDBRANCH   1   3
BRANCH   1   9
ATOM      9  C9  UNK d           8.003   6.064   6.745  0.00  0.00    -0.023 A 
ATOM     10  C10 UNK d           8.346   4.613   6.583  0.00  0.00     0.024 A 
ATOM     11  C11 UNK d           8.490   4.025   5.211  0.00  0.00     0.004 A 
ATOM     12  C12 UNK d           8.292   4.888   4.001  0.00  0.00     0.001 A 
ATOM     13  C13 UNK d           7.948   6.339   4.163  0.00  0.00     0.004 A 
ATOM     14  C14 UNK d           7.804   6.927   5.535  0.00  0.00     0.024 A 
ENDBRANCH   1   9
TORSDOF 4
ENDMDL
MODEL 2
REMARK VINA RESULT:      -1.0      1.303      2.038
REMARK  4 active torsions:
REMARK  status: ('A' for Active; 'I' for Inactive)
REMARK    1  A    between atoms: C2_2  and  C4_4 
REMARK    2  A    between atoms: C4_4  and  C6_6 
REMARK    3  A    between atoms: C6_6  and  C7_7 
REMARK    4  A    between atoms: C7_7  and  C9_9 
ROOT
ATOM      1  C7  UNK d           8.135   5.932   8.478  0.00  0.00     0.104 C 
ATOM      2  O8  UNK d           9.124   6.857   9.124  0.00  0.00    -0.195 OA
ENDROOT
BRANCH   1   3
ATOM      3  C6  UNK d           7.171   5.155   9.325  0.00  0.00     0.098 C 
BRANCH   3   4
ATOM      4  C4  UNK d           5.713   5.135   8.975  0.00  0.00     0.245 C 
ATOM      5  O5  UNK d           4.836   6.294   9.348  0.00  0.00    -0.211 OA
BRANCH   4   6
ATOM      6  C2  UNK d           5.130   3.957   8.253  0.00  0.00     0.218 C 
ATOM      7  O1  UNK d           5.131   3.921   6.753  0.00  0.00    -0.645 OA
ATOM      8  O3  UNK d           4.547   2.814   9.030  0.00  0.00    -0.645 OA
ENDBRANCH   4   6
ENDBRANCH   3   4
ENDBRANCH   1   3
BRANCH   1   9
ATOM      9  C9  UNK d           8.110   5.785   6.985  0.00  0.00    -0.023 A 
ATOM     10  C10 UNK d           7.479   6.849   6.137  0.00  0.00     0.024 A 
ATOM     11  C11 UNK d           7.454   6.702   4.645  0.00  0.00     0.004 A 
ATOM     12  C12 UNK d           8.060   5.490   4.000  0.00  0.00     0.001 A 
ATOM     13  C13 UNK d           8.690   4.426   4.848  0.00  0.00     0.004 A 
ATOM     14  C14 UNK d           8.715   4.573   6.341  0.00  0.00     0.024 A 
ENDBRANCH   1   9
TORSDOF 4
ENDMDL
MODEL 3
REMARK VINA RESULT:      -0.9      2.295      3.065
REMARK  4 active torsions:
REMARK  status: ('A' for Active; 'I' for Inactive)
REMARK    1  A    between atoms: C2_2  and  C4_4 
REMARK    2  A    between atoms: C4_4  and  C6_6 
REMARK    3  A    between atoms: C6_6  and  C7_7 
REMARK    4  A    between atoms: C7_7  and  C9_9 
ROOT
ATOM      1  C7  UNK d           8.050   2.721   6.165  0.00  0.00     0.104 C 
ATOM      2  O8  UNK d           9.125   1.747   5.783  0.00  0.00    -0.195 OA
ENDROOT
BRANCH   1   3
ATOM      3  C6  UNK d           6.892   2.270   7.004  0.00  0.00     0.098 C 
BRANCH   3   4
ATOM      4  C4  UNK d           6.261   3.215   7.982  0.00  0.00     0.245 C 
ATOM      5  O5  UNK d           7.040   3.694   9.171  0.00  0.00    -0.211 OA
BRANCH   4   6
ATOM      6  C2  UNK d           4.851   3.681   7.772  0.00  0.00     0.218 C 
ATOM      7  O1  UNK d           4.376   4.039   6.395  0.00  0.00    -0.645 OA
ATOM      8  O3  UNK d           3.915   3.790   8.940  0.00  0.00    -0.645 OA
ENDBRANCH   4   6
ENDBRANCH   3   4
ENDBRANCH   1   3
BRANCH   1   9
ATOM      9  C9  UNK d           8.134   4.148   5.707  0.00  0.00    -0.023 A 
ATOM     10  C10 UNK d           8.996   5.124   6.451  0.00  0.00     0.024 A 
ATOM     11  C11 UNK d           9.080   6.550   5.994  0.00  0.00     0.004 A 
ATOM     12  C12 UNK d           8.302   7.000   4.793  0.00  0.00     0.001 A 
ATOM     13  C13 UNK d           7.440   6.023   4.049  0.00  0.00     0.004 A 
ATOM     14  C14 UNK d           7.356   4.597   4.506  0.00  0.00     0.024 A 
ENDBRANCH   1   9
TORSDOF 4
ENDMDL
MODEL 4
REMARK VINA RESULT:      -0.9      2.313      3.147
REMARK  4 active torsions:
REMARK  status: ('A' for Active; 'I' for Inactive)
REMARK    1  A    between atoms: C2_2  and  C4_4 
REMARK    2  A    between atoms: C4_4  and  C6_6 
REMARK    3  A    between atoms: C6_6  and  C7_7 
REMARK    4  A    between atoms: C7_7  and  C9_9 
ROOT
ATOM      1  C7  UNK d           8.147   5.641   7.988  0.00  0.00     0.104 C 
ATOM      2  O8  UNK d           9.016   6.573   8.779  0.00  0.00    -0.195 OA
ENDROOT
BRANCH   1   3
ATOM      3  C6  UNK d           7.876   4.256   8.496  0.00  0.00     0.098 C 
BRANCH   3   4
ATOM      4  C4  UNK d           7.796   3.107   7.535  0.00  0.00     0.245 C 
ATOM      5  O5  UNK d           9.052   2.521   6.960  0.00  0.00    -0.211 OA
BRANCH   4   6
ATOM      6  C2  UNK d           6.461   2.544   7.149  0.00  0.00     0.218 C 
ATOM      7  O1  UNK d           5.721   3.108   5.973  0.00  0.00    -0.645 OA
ATOM      8  O3  UNK d           5.866   1.416   7.939  0.00  0.00    -0.645 OA
ENDBRANCH   4   6
ENDBRANCH   3   4
ENDBRANCH   1   3
BRANCH   1   9
ATOM      9  C9  UNK d           7.549   6.094   6.690  0.00  0.00    -0.023 A 
ATOM     10  C10 UNK d           6.120   6.547   6.640  0.00  0.00     0.024 A 
ATOM     11  C11 UNK d           5.521   7.000   5.341  0.00  0.00     0.004 A 
ATOM     12  C12 UNK d           6.352   7.000   4.092  0.00  0.00     0.001 A 
ATOM     13  C13 UNK d           7.781   6.547   4.142  0.00  0.00     0.004 A 
ATOM     14  C14 UNK d           8.379   6.094   5.441  0.00  0.00     0.024 A 
ENDBRANCH   1   9
TORSDOF 4
ENDMDL
MODEL 5
REMARK VINA RESULT:      -0.9      2.375      3.657
REMARK  4 active torsions:
REMARK  status: ('A' for Active; 'I' for Inactive)
REMARK    1  A    between atoms: C2_2  and  C4_4 
REMARK    2  A    between atoms: C4_4  and  C6_6 
REMARK    3  A    between atoms: C6_6  and  C7_7 
REMARK    4  A    between atoms: C7_7  and  C9_9 
ROOT
ATOM      1  C7  UNK d           8.238   5.706   5.069  0.00  0.00     0.104 C 
ATOM      2  O8  UNK d           8.115   6.854   4.111  0.00  0.00    -0.195 OA
ENDROOT
BRANCH   1   3
ATOM      3  C6  UNK d           9.122   5.827   6.275  0.00  0.00     0.098 C 
BRANCH   3   4
ATOM      4  C4  UNK d           8.649   5.322   7.606  0.00  0.00     0.245 C 
ATOM      5  O5  UNK d           9.115   3.988   8.111  0.00  0.00    -0.211 OA
BRANCH   4   6
ATOM      6  C2  UNK d           7.710   6.150   8.431  0.00  0.00     0.218 C 
ATOM      7  O1  UNK d           8.242   6.996   9.550  0.00  0.00    -0.645 OA
ATOM      8  O3  UNK d           6.239   6.132   8.138  0.00  0.00    -0.645 OA
ENDBRANCH   4   6
ENDBRANCH   3   4
ENDBRANCH   1   3
BRANCH   1   9
ATOM      9  C9  UNK d           7.476   4.438   4.822  0.00  0.00    -0.023 A 
ATOM     10  C10 UNK d           8.188   3.224   4.304  0.00  0.00     0.024 A 
ATOM     11  C11 UNK d           7.426   1.956   4.057  0.00  0.00     0.004 A 
ATOM     12  C12 UNK d           5.951   1.902   4.327  0.00  0.00     0.001 A 
ATOM     13  C13 UNK d           5.239   3.116   4.845  0.00  0.00     0.004 A 
ATOM     14  C14 UNK d           6.001   4.384   5.092  0.00  0.00     0.024 A 
ENDBRANCH   1   9
TORSDOF 4
ENDMDL
MODEL 6
REMARK VINA RESULT:      -0.9      1.978      2.874
REMARK  4 active torsions:
REMARK  status: ('A' for Active; 'I' for Inactive)
REMARK    1  A    between atoms: C2_2  and  C4_4 
REMARK    2  A    between atoms: C4_4  and  C6_6 
REMARK    3  A    between atoms: C6_6  and  C7_7 
REMARK    4  A    between atoms: C7_7  and  C9_9 
ROOT
ATOM      1  C7  UNK d           8.338   3.449   7.643  0.00  0.00     0.104 C 
ATOM      2  O8  UNK d           9.032   2.172   7.271  0.00  0.00    -0.195 OA
ENDROOT
BRANCH   1   3
ATOM      3  C6  UNK d           7.668   3.577   8.979  0.00  0.00     0.098 C 
BRANCH   3   4
ATOM      4  C4  UNK d           6.234   4.011   9.060  0.00  0.00     0.245 C 
ATOM      5  O5  UNK d           5.138   3.049   8.709  0.00  0.00    -0.211 OA
BRANCH   4   6
ATOM      6  C2  UNK d           5.897   5.407   9.493  0.00  0.00     0.218 C 
ATOM      7  O1  UNK d           4.462   5.819   9.646  0.00  0.00    -0.645 OA
ATOM      8  O3  UNK d           6.993   6.391   9.773  0.00  0.00    -0.645 OA
ENDBRANCH   4   6
ENDBRANCH   3   4
ENDBRANCH   1   3
BRANCH   1   9
ATOM      9  C9  UNK d           8.315   4.598   6.679  0.00  0.00    -0.023 A 
ATOM     10  C10 UNK d           7.482   4.516   5.434  0.00  0.00     0.024 A 
ATOM     11  C11 UNK d           7.459   5.665   4.470  0.00  0.00     0.004 A 
ATOM     12  C12 UNK d           8.268   6.897   4.752  0.00  0.00     0.001 A 
ATOM     13  C13 UNK d           9.101   6.979   5.996  0.00  0.00     0.004 A 
ATOM     14  C14 UNK d           9.124   5.830   6.960  0.00  0.00     0.024 A 
ENDBRANCH   1   9
TORSDOF 4
ENDMDL
MODEL 7
REMARK VINA RESULT:      -0.9      2.133      3.397
REMARK  4 active torsions:
REMARK  status: ('A' for Active; 'I' for Inactive)
REMARK    1  A    between atoms: C2_2  and  C4_4 
REMARK    2  A    between atoms: C4_4  and  C6_6 
REMARK    3  A    between atoms: C6_6  and  C7_7 
REMARK    4  A    between atoms: C7_7  and  C9_9 
ROOT
ATOM      1  C7  UNK d           6.466   3.410   5.156  0.00  0.00     0.104 C 
ATOM      2  O8  UNK d           7.074   2.123   4.683  0.00  0.00    -0.195 OA
ENDROOT
BRANCH   1   3
ATOM      3  C6  UNK d           4.984   3.507   5.365  0.00  0.00     0.098 C 
BRANCH   3   4
ATOM      4  C4  UNK d           4.437   4.350   6.479  0.00  0.00     0.245 C 
ATOM      5  O5  UNK d           4.004   5.760   6.208  0.00  0.00    -0.211 OA
BRANCH   4   6
ATOM      6  C2  UNK d           4.323   3.783   7.863  0.00  0.00     0.218 C 
ATOM      7  O1  UNK d           5.548   3.632   8.715  0.00  0.00    -0.645 OA
ATOM      8  O3  UNK d           2.984   3.366   8.394  0.00  0.00    -0.645 OA
ENDBRANCH   4   6
ENDBRANCH   3   4
ENDBRANCH   1   3
BRANCH   1   9
ATOM      9  C9  UNK d           7.340   4.601   5.419  0.00  0.00    -0.023 A 
ATOM     10  C10 UNK d           8.251   4.613   6.610  0.00  0.00     0.024 A 
ATOM     11  C11 UNK d           9.125   5.804   6.873  0.00  0.00     0.004 A 
ATOM     12  C12 UNK d           9.087   6.982   5.945  0.00  0.00     0.001 A 
ATOM     13  C13 UNK d           8.175   6.969   4.754  0.00  0.00     0.004 A 
ATOM     14  C14 UNK d           7.302   5.778   4.491  0.00  0.00     0.024 A 
ENDBRANCH   1   9
TORSDOF 4
ENDMDL
MODEL 8
REMARK VINA RESULT:      -0.8      2.498      3.487
REMARK  4 active torsions:
REMARK  status: ('A' for Active; 'I' for Inactive)
REMARK    1  A    between atoms: C2_2  and  C4_4 
REMARK    2  A    between atoms: C4_4  and  C6_6 
REMARK    3  A    between atoms: C6_6  and  C7_7 
REMARK    4  A    between atoms: C7_7  and  C9_9 
ROOT
ATOM      1  C7  UNK d           6.498   3.500   4.737  0.00  0.00     0.104 C 
ATOM      2  O8  UNK d           7.136   2.225   4.272  0.00  0.00    -0.195 OA
ENDROOT
BRANCH   1   3
ATOM      3  C6  UNK d           5.004   3.628   4.753  0.00  0.00     0.098 C 
BRANCH   3   4
ATOM      4  C4  UNK d           4.332   4.442   5.819  0.00  0.00     0.245 C 
ATOM      5  O5  UNK d           4.137   3.866   7.190  0.00  0.00    -0.211 OA
BRANCH   4   6
ATOM      6  C2  UNK d           3.856   5.831   5.514  0.00  0.00     0.218 C 
ATOM      7  O1  UNK d           3.338   6.706   6.618  0.00  0.00    -0.645 OA
ATOM      8  O3  UNK d           3.898   6.347   4.106  0.00  0.00    -0.645 OA
ENDBRANCH   4   6
ENDBRANCH   3   4
ENDBRANCH   1   3
BRANCH   1   9
ATOM      9  C9  UNK d           7.354   4.647   5.186  0.00  0.00    -0.023 A 
ATOM     10  C10 UNK d           8.051   4.589   6.513  0.00  0.00     0.024 A 
ATOM     11  C11 UNK d           8.907   5.736   6.961  0.00  0.00     0.004 A 
ATOM     12  C12 UNK d           9.066   6.941   6.083  0.00  0.00     0.001 A 
ATOM     13  C13 UNK d           8.369   7.000   4.756  0.00  0.00     0.004 A 
ATOM     14  C14 UNK d           7.513   5.853   4.308  0.00  0.00     0.024 A 
ENDBRANCH   1   9
TORSDOF 4
ENDMDL
MODEL 9
REMARK VINA RESULT:      -0.8      2.252      3.377
REMARK  4 active torsions:
REMARK  status: ('A' for Active; 'I' for Inactive)
REMARK    1  A    between atoms: C2_2  and  C4_4 
REMARK    2  A    between atoms: C4_4  and  C6_6 
REMARK    3  A    between atoms: C6_6  and  C7_7 
REMARK    4  A    between atoms: C7_7  and  C9_9 
ROOT
ATOM      1  C7  UNK d           5.953   3.550   4.985  0.00  0.00     0.104 C 
ATOM      2  O8  UNK d           6.448   2.245   4.434  0.00  0.00    -0.195 OA
ENDROOT
BRANCH   1   3
ATOM      3  C6  UNK d           4.510   3.704   5.365  0.00  0.00     0.098 C 
BRANCH   3   4
ATOM      4  C4  UNK d           4.142   4.349   6.668  0.00  0.00     0.245 C 
ATOM      5  O5  UNK d           4.437   3.647   7.961  0.00  0.00    -0.211 OA
BRANCH   4   6
ATOM      6  C2  UNK d           3.480   5.694   6.680  0.00  0.00     0.218 C 
ATOM      7  O1  UNK d           4.246   6.911   6.252  0.00  0.00    -0.645 OA
ATOM      8  O3  UNK d           2.051   5.823   7.119  0.00  0.00    -0.645 OA
ENDBRANCH   4   6
ENDBRANCH   3   4
ENDBRANCH   1   3
BRANCH   1   9
ATOM      9  C9  UNK d           6.901   4.700   5.156  0.00  0.00    -0.023 A 
ATOM     10  C10 UNK d           6.939   5.798   4.135  0.00  0.00     0.024 A 
ATOM     11  C11 UNK d           7.887   6.948   4.305  0.00  0.00     0.004 A 
ATOM     12  C12 UNK d           8.796   7.000   5.497  0.00  0.00     0.001 A 
ATOM     13  C13 UNK d           8.758   5.902   6.518  0.00  0.00     0.004 A 
ATOM     14  C14 UNK d           7.810   4.752   6.347  0.00  0.00     0.024 A 
ENDBRANCH   1   9
TORSDOF 4
ENDMDL
