MODEL 1
REMARK VINA RESULT:      -4.5      0.000      0.000
REMARK  4 active torsions:
REMARK  status: ('A' for Active; 'I' for Inactive)
REMARK    1  A    between atoms: C2_2  and  C4_4 
REMARK    2  A    between atoms: C4_4  and  C6_6 
REMARK    3  A    between atoms: C6_6  and  C7_7 
REMARK    4  A    between atoms: C7_7  and  C9_9 
ROOT
ATOM      1  C7  UNK d          13.847  15.485  13.276  0.00  0.00     0.104 C 
ATOM      2  O8  UNK d          13.111  15.203  12.000  0.00  0.00    -0.195 OA
ENDROOT
BRANCH   1   3
ATOM      3  C6  UNK d          13.095  15.583  14.570  0.00  0.00     0.098 C 
BRANCH   3   4
ATOM      4  C4  UNK d          12.434  16.873  14.957  0.00  0.00     0.245 C 
ATOM      5  O5  UNK d          12.967  17.674  16.108  0.00  0.00    -0.211 OA
BRANCH   4   6
ATOM      6  C2  UNK d          11.239  17.362  14.194  0.00  0.00     0.218 C 
ATOM      7  O1  UNK d          10.143  16.406  13.824  0.00  0.00    -0.645 OA
ATOM      8  O3  UNK d          11.140  18.805  13.799  0.00  0.00    -0.645 OA
ENDBRANCH   4   6
ENDBRANCH   3   4
ENDBRANCH   1   3
BRANCH   1   9
ATOM      9  C9  UNK d          15.336  15.669  13.258  0.00  0.00    -0.023 A 
ATOM     10  C10 UNK d          16.148  15.329  14.472  0.00  0.00     0.024 A 
ATOM     11  C11 UNK d          17.637  15.512  14.454  0.00  0.00     0.004 A 
ATOM     12  C12 UNK d          18.313  16.036  13.222  0.00  0.00     0.001 A 
ATOM     13  C13 UNK d          17.501  16.375  12.008  0.00  0.00     0.004 A 
ATOM     14  C14 UNK d          16.012  16.192  12.026  0.00  0.00     0.024 A 
ENDBRANCH   1   9
TORSDOF 4
ENDMDL
MODEL 2
REMARK VINA RESULT:      -4.3      1.618      2.782
REMARK  4 active torsions:
REMARK  status: ('A' for Active; 'I' for Inactive)
REMARK    1  A    between atoms: C2_2  and  C4_4 
REMARK    2  A    between atoms: C4_4  and  C6_6 
REMARK    3  A    between atoms: C6_6  and  C7_7 
REMARK    4  A    between atoms: C7_7  and  C9_9 
ROOT
ATOM      1  C7  UNK d          13.237  14.626  14.941  0.00  0.00     0.104 C 
ATOM      2  O8  UNK d          13.284  14.735  16.436  0.00  0.00    -0.195 OA
ENDROOT
BRANCH   1   3
ATOM      3  C6  UNK d          11.994  14.128  14.264  0.00  0.00     0.098 C 
BRANCH   3   4
ATOM      4  C4  UNK d          10.743  14.955  14.290  0.00  0.00     0.245 C 
ATOM      5  O5  UNK d           9.401  14.288  14.226  0.00  0.00    -0.211 OA
BRANCH   4   6
ATOM      6  C2  UNK d          10.834  16.450  14.379  0.00  0.00     0.218 C 
ATOM      7  O1  UNK d          11.109  17.260  13.147  0.00  0.00    -0.645 OA
ATOM      8  O3  UNK d          10.650  17.135  15.701  0.00  0.00    -0.645 OA
ENDBRANCH   4   6
ENDBRANCH   3   4
ENDBRANCH   1   3
BRANCH   1   9
ATOM      9  C9  UNK d          14.432  15.015  14.122  0.00  0.00    -0.023 A 
ATOM     10  C10 UNK d          14.247  15.733  12.818  0.00  0.00     0.024 A 
ATOM     11  C11 UNK d          15.442  16.122  12.000  0.00  0.00     0.004 A 
ATOM     12  C12 UNK d          16.823  15.794  12.486  0.00  0.00     0.001 A 
ATOM     13  C13 UNK d          17.008  15.076  13.790  0.00  0.00     0.004 A 
ATOM     14  C14 UNK d          15.813  14.686  14.608  0.00  0.00     0.024 A 
ENDBRANCH   1   9
TORSDOF 4
ENDMDL
MODEL 3
REMARK VINA RESULT:      -4.3      1.622      2.504
REMARK  4 active torsions:
REMARK  status: ('A' for Active; 'I' for Inactive)
REMARK    1  A    between atoms: C2_2  and  C4_4 
REMARK    2  A    between atoms: C4_4  and  C6_6 
REMARK    3  A    between atoms: C6_6  and  C7_7 
REMARK    4  A    between atoms: C7_7  and  C9_9 
ROOT
ATOM      1  C7  UNK d          13.233  14.673  14.945  0.00  0.00     0.104 C 
ATOM      2  O8  UNK d          13.250  14.858  16.434  0.00  0.00    -0.195 OA
ENDROOT
BRANCH   1   3
ATOM      3  C6  UNK d          12.006  14.134  14.271  0.00  0.00     0.098 C 
BRANCH   3   4
ATOM      4  C4  UNK d          10.713  14.888  14.352  0.00  0.00     0.245 C 
ATOM      5  O5  UNK d           9.409  14.148  14.305  0.00  0.00    -0.211 OA
BRANCH   4   6
ATOM      6  C2  UNK d          10.723  16.383  14.480  0.00  0.00     0.218 C 
ATOM      7  O1  UNK d          11.085  17.234  13.300  0.00  0.00    -0.645 OA
ATOM      8  O3  UNK d          10.371  17.026  15.789  0.00  0.00    -0.645 OA
ENDBRANCH   4   6
ENDBRANCH   3   4
ENDBRANCH   1   3
BRANCH   1   9
ATOM      9  C9  UNK d          14.442  15.028  14.131  0.00  0.00    -0.023 A 
ATOM     10  C10 UNK d          15.808  14.629  14.605  0.00  0.00     0.024 A 
ATOM     11  C11 UNK d          17.017  14.984  13.791  0.00  0.00     0.004 A 
ATOM     12  C12 UNK d          16.860  15.737  12.503  0.00  0.00     0.001 A 
ATOM     13  C13 UNK d          15.493  16.136  12.030  0.00  0.00     0.004 A 
ATOM     14  C14 UNK d          14.284  15.781  12.844  0.00  0.00     0.024 A 
ENDBRANCH   1   9
TORSDOF 4
ENDMDL
MODEL 4
REMARK VINA RESULT:      -4.2      1.567      2.374
REMARK  4 active torsions:
REMARK  status: ('A' for Active; 'I' for Inactive)
REMARK    1  A    between atoms: C2_2  and  C4_4 
REMARK    2  A    between atoms: C4_4  and  C6_6 
REMARK    3  A    between atoms: C6_6  and  C7_7 
REMARK    4  A    between atoms: C7_7  and  C9_9 
ROOT
ATOM      1  C7  UNK d          13.647  15.130  15.185  0.00  0.00     0.104 C 
ATOM      2  O8  UNK d          13.139  13.774  15.574  0.00  0.00    -0.195 OA
ENDROOT
BRANCH   1   3
ATOM      3  C6  UNK d          12.993  16.362  15.735  0.00  0.00     0.098 C 
BRANCH   3   4
ATOM      4  C4  UNK d          11.509  16.542  15.611  0.00  0.00     0.245 C 
ATOM      5  O5  UNK d          10.697  16.931  16.811  0.00  0.00    -0.211 OA
BRANCH   4   6
ATOM      6  C2  UNK d          10.836  16.334  14.287  0.00  0.00     0.218 C 
ATOM      7  O1  UNK d          11.281  17.117  13.087  0.00  0.00    -0.645 OA
ATOM      8  O3  UNK d           9.718  15.341  14.161  0.00  0.00    -0.645 OA
ENDBRANCH   4   6
ENDBRANCH   3   4
ENDBRANCH   1   3
BRANCH   1   9
ATOM      9  C9  UNK d          14.810  15.254  14.246  0.00  0.00    -0.023 A 
ATOM     10  C10 UNK d          14.646  15.971  12.939  0.00  0.00     0.024 A 
ATOM     11  C11 UNK d          15.809  16.095  12.000  0.00  0.00     0.004 A 
ATOM     12  C12 UNK d          17.137  15.502  12.368  0.00  0.00     0.001 A 
ATOM     13  C13 UNK d          17.301  14.784  13.675  0.00  0.00     0.004 A 
ATOM     14  C14 UNK d          16.138  14.660  14.614  0.00  0.00     0.024 A 
ENDBRANCH   1   9
TORSDOF 4
ENDMDL
MODEL 5
REMARK VINA RESULT:      -4.2      1.498      2.126
REMARK  4 active torsions:
REMARK  status: ('A' for Active; 'I' for Inactive)
REMARK    1  A    between atoms: C2_2  and  C4_4 
REMARK    2  A    between atoms: C4_4  and  C6_6 
REMARK    3  A    between atoms: C6_6  and  C7_7 
REMARK    4  A    between atoms: C7_7  and  C9_9 
ROOT
ATOM      1  C7  UNK d          13.618  16.203  14.478  0.00  0.00     0.104 C 
ATOM      2  O8  UNK d          13.497  16.664  15.900  0.00  0.00    -0.195 OA
ENDROOT
BRANCH   1   3
ATOM      3  C6  UNK d          12.409  16.184  13.591  0.00  0.00     0.098 C 
BRANCH   3   4
ATOM      4  C4  UNK d          11.222  17.038  13.923  0.00  0.00     0.245 C 
ATOM      5  O5  UNK d          11.255  18.511  13.642  0.00  0.00    -0.211 OA
BRANCH   4   6
ATOM      6  C2  UNK d          10.001  16.420  14.537  0.00  0.00     0.218 C 
ATOM      7  O1  UNK d           9.253  17.146  15.616  0.00  0.00    -0.645 OA
ATOM      8  O3  UNK d           9.527  15.075  14.072  0.00  0.00    -0.645 OA
ENDBRANCH   4   6
ENDBRANCH   3   4
ENDBRANCH   1   3
BRANCH   1   9
ATOM      9  C9  UNK d          14.948  15.760  13.943  0.00  0.00    -0.023 A 
ATOM     10  C10 UNK d          15.886  14.981  14.817  0.00  0.00     0.024 A 
ATOM     11  C11 UNK d          17.215  14.538  14.283  0.00  0.00     0.004 A 
ATOM     12  C12 UNK d          17.607  14.874  12.874  0.00  0.00     0.001 A 
ATOM     13  C13 UNK d          16.669  15.652  12.000  0.00  0.00     0.004 A 
ATOM     14  C14 UNK d          15.339  16.095  12.535  0.00  0.00     0.024 A 
ENDBRANCH   1   9
TORSDOF 4
ENDMDL
MODEL 6
REMARK VINA RESULT:      -3.8      2.133      3.823
REMARK  4 active torsions:
REMARK  status: ('A' for Active; 'I' for Inactive)
REMARK    1  A    between atoms: C2_2  and  C4_4 
REMARK    2  A    between atoms: C4_4  and  C6_6 
REMARK    3  A    between atoms: C6_6  and  C7_7 
REMARK    4  A    between atoms: C7_7  and  C9_9 
ROOT
ATOM      1  C7  UNK d          11.364  17.200  14.161  0.00  0.00     0.104 C 
ATOM      2  O8  UNK d          11.211  18.640  13.768  0.00  0.00    -0.195 OA
ENDROOT
BRANCH   1   3
ATOM      3  C6  UNK d          10.156  16.318  14.261  0.00  0.00     0.098 C 
BRANCH   3   4
ATOM      4  C4  UNK d          10.199  15.081  15.109  0.00  0.00     0.245 C 
ATOM      5  O5  UNK d          10.177  15.195  16.604  0.00  0.00    -0.211 OA
BRANCH   4   6
ATOM      6  C2  UNK d          10.264  13.730  14.461  0.00  0.00     0.218 C 
ATOM      7  O1  UNK d           9.000  13.025  14.066  0.00  0.00    -0.645 OA
ATOM      8  O3  UNK d          11.594  13.083  14.208  0.00  0.00    -0.645 OA
ENDBRANCH   4   6
ENDBRANCH   3   4
ENDBRANCH   1   3
BRANCH   1   9
ATOM      9  C9  UNK d          12.726  16.644  14.452  0.00  0.00    -0.023 A 
ATOM     10  C10 UNK d          13.465  15.878  13.396  0.00  0.00     0.024 A 
ATOM     11  C11 UNK d          14.827  15.321  13.688  0.00  0.00     0.004 A 
ATOM     12  C12 UNK d          15.450  15.530  15.036  0.00  0.00     0.001 A 
ATOM     13  C13 UNK d          14.711  16.296  16.093  0.00  0.00     0.004 A 
ATOM     14  C14 UNK d          13.349  16.853  15.801  0.00  0.00     0.024 A 
ENDBRANCH   1   9
TORSDOF 4
ENDMDL
MODEL 7
REMARK VINA RESULT:      -3.7      2.352      3.590
REMARK  4 active torsions:
REMARK  status: ('A' for Active; 'I' for Inactive)
REMARK    1  A    between atoms: C2_2  and  C4_4 
REMARK    2  A    between atoms: C4_4  and  C6_6 
REMARK    3  A    between atoms: C6_6  and  C7_7 
REMARK    4  A    between atoms: C7_7  and  C9_9 
ROOT
ATOM      1  C7  UNK d          13.890  15.777  14.487  0.00  0.00     0.104 C 
ATOM      2  O8  UNK d          14.335  16.229  13.127  0.00  0.00    -0.195 OA
ENDROOT
BRANCH   1   3
ATOM      3  C6  UNK d          13.437  16.785  15.501  0.00  0.00     0.098 C 
BRANCH   3   4
ATOM      4  C4  UNK d          11.983  17.137  15.610  0.00  0.00     0.245 C 
ATOM      5  O5  UNK d          11.329  17.211  16.958  0.00  0.00    -0.211 OA
BRANCH   4   6
ATOM      6  C2  UNK d          11.184  17.415  14.372  0.00  0.00     0.218 C 
ATOM      7  O1  UNK d          11.186  18.789  13.770  0.00  0.00    -0.645 OA
ATOM      8  O3  UNK d          10.381  16.319  13.736  0.00  0.00    -0.645 OA
ENDBRANCH   4   6
ENDBRANCH   3   4
ENDBRANCH   1   3
BRANCH   1   9
ATOM      9  C9  UNK d          13.899  14.317  14.832  0.00  0.00    -0.023 A 
ATOM     10  C10 UNK d          15.201  13.607  15.058  0.00  0.00     0.024 A 
ATOM     11  C11 UNK d          15.209  12.148  15.403  0.00  0.00     0.004 A 
ATOM     12  C12 UNK d          13.916  11.398  15.523  0.00  0.00     0.001 A 
ATOM     13  C13 UNK d          12.614  12.108  15.297  0.00  0.00     0.004 A 
ATOM     14  C14 UNK d          12.605  13.567  14.952  0.00  0.00     0.024 A 
ENDBRANCH   1   9
TORSDOF 4
ENDMDL
MODEL 8
REMARK VINA RESULT:      -3.6      2.388      3.378
REMARK  4 active torsions:
REMARK  status: ('A' for Active; 'I' for Inactive)
REMARK    1  A    between atoms: C2_2  and  C4_4 
REMARK    2  A    between atoms: C4_4  and  C6_6 
REMARK    3  A    between atoms: C6_6  and  C7_7 
REMARK    4  A    between atoms: C7_7  and  C9_9 
ROOT
ATOM      1  C7  UNK d          13.886  15.616  14.018  0.00  0.00     0.104 C 
ATOM      2  O8  UNK d          14.679  15.931  12.784  0.00  0.00    -0.195 OA
ENDROOT
BRANCH   1   3
ATOM      3  C6  UNK d          12.690  14.715  13.932  0.00  0.00     0.098 C 
BRANCH   3   4
ATOM      4  C4  UNK d          11.455  15.032  14.721  0.00  0.00     0.245 C 
ATOM      5  O5  UNK d          11.212  14.354  16.037  0.00  0.00    -0.211 OA
BRANCH   4   6
ATOM      6  C2  UNK d          10.462  16.025  14.195  0.00  0.00     0.218 C 
ATOM      7  O1  UNK d           9.004  15.868  14.510  0.00  0.00    -0.645 OA
ATOM      8  O3  UNK d          10.927  17.176  13.353  0.00  0.00    -0.645 OA
ENDBRANCH   4   6
ENDBRANCH   3   4
ENDBRANCH   1   3
BRANCH   1   9
ATOM      9  C9  UNK d          14.290  16.201  15.339  0.00  0.00    -0.023 A 
ATOM     10  C10 UNK d          13.408  17.209  16.014  0.00  0.00     0.024 A 
ATOM     11  C11 UNK d          13.812  17.794  17.335  0.00  0.00     0.004 A 
ATOM     12  C12 UNK d          15.098  17.372  17.980  0.00  0.00     0.001 A 
ATOM     13  C13 UNK d          15.981  16.364  17.305  0.00  0.00     0.004 A 
ATOM     14  C14 UNK d          15.577  15.779  15.985  0.00  0.00     0.024 A 
ENDBRANCH   1   9
TORSDOF 4
ENDMDL
MODEL 9
REMARK VINA RESULT:      -3.5      1.558      2.878
REMARK  4 active torsions:
REMARK  status: ('A' for Active; 'I' for Inactive)
REMARK    1  A    between atoms: C2_2  and  C4_4 
REMARK    2  A    between atoms: C4_4  and  C6_6 
REMARK    3  A    between atoms: C6_6  and  C7_7 
REMARK    4  A    between atoms: C7_7  and  C9_9 
ROOT
ATOM      1  C7  UNK d          15.182  14.925  13.944  0.00  0.00     0.104 C 
ATOM      2  O8  UNK d          15.103  13.655  14.738  0.00  0.00    -0.195 OA
ENDROOT
BRANCH   1   3
ATOM      3  C6  UNK d          13.927  15.573  13.439  0.00  0.00     0.098 C 
BRANCH   3   4
ATOM      4  C4  UNK d          13.078  16.390  14.369  0.00  0.00     0.245 C 
ATOM      5  O5  UNK d          11.992  17.265  13.818  0.00  0.00    -0.211 OA
BRANCH   4   6
ATOM      6  C2  UNK d          13.317  16.331  15.848  0.00  0.00     0.218 C 
ATOM      7  O1  UNK d          14.208  17.343  16.505  0.00  0.00    -0.645 OA
ATOM      8  O3  UNK d          12.664  15.260  16.671  0.00  0.00    -0.645 OA
ENDBRANCH   4   6
ENDBRANCH   3   4
ENDBRANCH   1   3
BRANCH   1   9
ATOM      9  C9  UNK d          16.516  15.547  13.654  0.00  0.00    -0.023 A 
ATOM     10  C10 UNK d          16.805  16.102  12.291  0.00  0.00     0.024 A 
ATOM     11  C11 UNK d          18.139  16.724  12.001  0.00  0.00     0.004 A 
ATOM     12  C12 UNK d          19.184  16.791  13.075  0.00  0.00     0.001 A 
ATOM     13  C13 UNK d          18.895  16.236  14.438  0.00  0.00     0.004 A 
ATOM     14  C14 UNK d          17.561  15.614  14.728  0.00  0.00     0.024 A 
ENDBRANCH   1   9
TORSDOF 4
ENDMDL
