MODEL 1
REMARK VINA RESULT:      -5.0      0.000      0.000
REMARK  4 active torsions:
REMARK  status: ('A' for Active; 'I' for Inactive)
REMARK    1  A    between atoms: C2_2  and  C4_4 
REMARK    2  A    between atoms: C4_4  and  C6_6 
REMARK    3  A    between atoms: C6_6  and  C7_7 
REMARK    4  A    between atoms: C7_7  and  C9_9 
ROOT
ATOM      1  C7  UNK d          13.216  36.797  -6.585  0.00  0.00     0.104 C 
ATOM      2  O8  UNK d          12.835  35.704  -5.630  0.00  0.00    -0.195 OA
ENDROOT
BRANCH   1   3
ATOM      3  C6  UNK d          12.641  38.172  -6.419  0.00  0.00     0.098 C 
BRANCH   3   4
ATOM      4  C4  UNK d          13.118  39.055  -5.304  0.00  0.00     0.245 C 
ATOM      5  O5  UNK d          14.578  39.367  -5.166  0.00  0.00    -0.211 OA
BRANCH   4   6
ATOM      6  C2  UNK d          12.134  39.625  -4.326  0.00  0.00     0.218 C 
ATOM      7  O1  UNK d          12.416  39.561  -2.854  0.00  0.00    -0.645 OA
ATOM      8  O3  UNK d          10.868  40.260  -4.820  0.00  0.00    -0.645 OA
ENDBRANCH   4   6
ENDBRANCH   3   4
ENDBRANCH   1   3
BRANCH   1   9
ATOM      9  C9  UNK d          14.171  36.513  -7.706  0.00  0.00    -0.023 A 
ATOM     10  C10 UNK d          14.347  35.110  -8.204  0.00  0.00     0.024 A 
ATOM     11  C11 UNK d          15.303  34.826  -9.325  0.00  0.00     0.004 A 
ATOM     12  C12 UNK d          16.083  35.947  -9.948  0.00  0.00     0.001 A 
ATOM     13  C13 UNK d          15.907  37.350  -9.449  0.00  0.00     0.004 A 
ATOM     14  C14 UNK d          14.951  37.634  -8.328  0.00  0.00     0.024 A 
ENDBRANCH   1   9
TORSDOF 4
ENDMDL
MODEL 2
REMARK VINA RESULT:      -4.9      0.951      2.211
REMARK  4 active torsions:
REMARK  status: ('A' for Active; 'I' for Inactive)
REMARK    1  A    between atoms: C2_2  and  C4_4 
REMARK    2  A    between atoms: C4_4  and  C6_6 
REMARK    3  A    between atoms: C6_6  and  C7_7 
REMARK    4  A    between atoms: C7_7  and  C9_9 
ROOT
ATOM      1  C7  UNK d          14.253  38.616  -6.586  0.00  0.00     0.104 C 
ATOM      2  O8  UNK d          15.127  39.536  -5.787  0.00  0.00    -0.195 OA
ENDROOT
BRANCH   1   3
ATOM      3  C6  UNK d          12.791  38.505  -6.266  0.00  0.00     0.098 C 
BRANCH   3   4
ATOM      4  C4  UNK d          12.347  38.317  -4.845  0.00  0.00     0.245 C 
ATOM      5  O5  UNK d          12.400  36.957  -4.216  0.00  0.00    -0.211 OA
BRANCH   4   6
ATOM      6  C2  UNK d          11.849  39.491  -4.055  0.00  0.00     0.218 C 
ATOM      7  O1  UNK d          12.394  39.756  -2.683  0.00  0.00    -0.645 OA
ATOM      8  O3  UNK d          10.806  40.398  -4.636  0.00  0.00    -0.645 OA
ENDBRANCH   4   6
ENDBRANCH   3   4
ENDBRANCH   1   3
BRANCH   1   9
ATOM      9  C9  UNK d          14.839  37.806  -7.704  0.00  0.00    -0.023 A 
ATOM     10  C10 UNK d          15.910  38.395  -8.574  0.00  0.00     0.024 A 
ATOM     11  C11 UNK d          16.497  37.585  -9.692  0.00  0.00     0.004 A 
ATOM     12  C12 UNK d          16.013  36.188  -9.941  0.00  0.00     0.001 A 
ATOM     13  C13 UNK d          14.942  35.599  -9.071  0.00  0.00     0.004 A 
ATOM     14  C14 UNK d          14.355  36.409  -7.952  0.00  0.00     0.024 A 
ENDBRANCH   1   9
TORSDOF 4
ENDMDL
MODEL 3
REMARK VINA RESULT:      -4.9      1.060      1.787
REMARK  4 active torsions:
REMARK  status: ('A' for Active; 'I' for Inactive)
REMARK    1  A    between atoms: C2_2  and  C4_4 
REMARK    2  A    between atoms: C4_4  and  C6_6 
REMARK    3  A    between atoms: C6_6  and  C7_7 
REMARK    4  A    between atoms: C7_7  and  C9_9 
ROOT
ATOM      1  C7  UNK d          13.384  35.934  -7.212  0.00  0.00     0.104 C 
ATOM      2  O8  UNK d          12.959  34.622  -6.622  0.00  0.00    -0.195 OA
ENDROOT
BRANCH   1   3
ATOM      3  C6  UNK d          12.718  37.204  -6.774  0.00  0.00     0.098 C 
BRANCH   3   4
ATOM      4  C4  UNK d          12.886  37.694  -5.367  0.00  0.00     0.245 C 
ATOM      5  O5  UNK d          12.457  36.832  -4.216  0.00  0.00    -0.211 OA
BRANCH   4   6
ATOM      6  C2  UNK d          13.484  39.045  -5.109  0.00  0.00     0.218 C 
ATOM      7  O1  UNK d          12.669  40.109  -4.433  0.00  0.00    -0.645 OA
ATOM      8  O3  UNK d          14.895  39.333  -5.526  0.00  0.00    -0.645 OA
ENDBRANCH   4   6
ENDBRANCH   3   4
ENDBRANCH   1   3
BRANCH   1   9
ATOM      9  C9  UNK d          14.477  35.975  -8.239  0.00  0.00    -0.023 A 
ATOM     10  C10 UNK d          14.956  34.704  -8.875  0.00  0.00     0.024 A 
ATOM     11  C11 UNK d          16.048  34.746  -9.903  0.00  0.00     0.004 A 
ATOM     12  C12 UNK d          16.661  36.058 -10.294  0.00  0.00     0.001 A 
ATOM     13  C13 UNK d          16.181  37.329  -9.658  0.00  0.00     0.004 A 
ATOM     14  C14 UNK d          15.089  37.287  -8.630  0.00  0.00     0.024 A 
ENDBRANCH   1   9
TORSDOF 4
ENDMDL
MODEL 4
REMARK VINA RESULT:      -4.8      1.410      2.066
REMARK  4 active torsions:
REMARK  status: ('A' for Active; 'I' for Inactive)
REMARK    1  A    between atoms: C2_2  and  C4_4 
REMARK    2  A    between atoms: C4_4  and  C6_6 
REMARK    3  A    between atoms: C6_6  and  C7_7 
REMARK    4  A    between atoms: C7_7  and  C9_9 
ROOT
ATOM      1  C7  UNK d          13.466  38.435  -5.852  0.00  0.00     0.104 C 
ATOM      2  O8  UNK d          14.456  39.356  -5.201  0.00  0.00    -0.195 OA
ENDROOT
BRANCH   1   3
ATOM      3  C6  UNK d          12.027  38.464  -5.432  0.00  0.00     0.098 C 
BRANCH   3   4
ATOM      4  C4  UNK d          11.367  39.771  -5.104  0.00  0.00     0.245 C 
ATOM      5  O5  UNK d          10.665  40.547  -6.178  0.00  0.00    -0.211 OA
BRANCH   4   6
ATOM      6  C2  UNK d          11.411  40.302  -3.702  0.00  0.00     0.218 C 
ATOM      7  O1  UNK d          12.380  39.727  -2.712  0.00  0.00    -0.645 OA
ATOM      8  O3  UNK d          10.485  41.408  -3.289  0.00  0.00    -0.645 OA
ENDBRANCH   4   6
ENDBRANCH   3   4
ENDBRANCH   1   3
BRANCH   1   9
ATOM      9  C9  UNK d          13.917  37.485  -6.922  0.00  0.00    -0.023 A 
ATOM     10  C10 UNK d          13.417  36.071  -6.928  0.00  0.00     0.024 A 
ATOM     11  C11 UNK d          13.867  35.121  -7.998  0.00  0.00     0.004 A 
ATOM     12  C12 UNK d          14.817  35.586  -9.062  0.00  0.00     0.001 A 
ATOM     13  C13 UNK d          15.317  37.000  -9.056  0.00  0.00     0.004 A 
ATOM     14  C14 UNK d          14.866  37.950  -7.986  0.00  0.00     0.024 A 
ENDBRANCH   1   9
TORSDOF 4
ENDMDL
MODEL 5
REMARK VINA RESULT:      -4.6     22.660     23.446
REMARK  4 active torsions:
REMARK  status: ('A' for Active; 'I' for Inactive)
REMARK    1  A    between atoms: C2_2  and  C4_4 
REMARK    2  A    between atoms: C4_4  and  C6_6 
REMARK    3  A    between atoms: C6_6  and  C7_7 
REMARK    4  A    between atoms: C7_7  and  C9_9 
ROOT
ATOM      1  C7  UNK d          29.736  30.477   7.852  0.00  0.00     0.104 C 
ATOM      2  O8  UNK d          28.281  30.114   7.895  0.00  0.00    -0.195 OA
ENDROOT
BRANCH   1   3
ATOM      3  C6  UNK d          30.757  29.441   7.483  0.00  0.00     0.098 C 
BRANCH   3   4
ATOM      4  C4  UNK d          30.724  28.807   6.124  0.00  0.00     0.245 C 
ATOM      5  O5  UNK d          29.820  27.638   5.863  0.00  0.00    -0.211 OA
BRANCH   4   6
ATOM      6  C2  UNK d          31.595  29.341   5.026  0.00  0.00     0.218 C 
ATOM      7  O1  UNK d          31.329  30.700   4.451  0.00  0.00    -0.645 OA
ATOM      8  O3  UNK d          32.733  28.515   4.503  0.00  0.00    -0.645 OA
ENDBRANCH   4   6
ENDBRANCH   3   4
ENDBRANCH   1   3
BRANCH   1   9
ATOM      9  C9  UNK d          30.170  31.875   8.177  0.00  0.00    -0.023 A 
ATOM     10  C10 UNK d          31.209  32.554   7.334  0.00  0.00     0.024 A 
ATOM     11  C11 UNK d          31.643  33.952   7.659  0.00  0.00     0.004 A 
ATOM     12  C12 UNK d          31.039  34.672   8.828  0.00  0.00     0.001 A 
ATOM     13  C13 UNK d          30.000  33.994   9.672  0.00  0.00     0.004 A 
ATOM     14  C14 UNK d          29.566  32.595   9.346  0.00  0.00     0.024 A 
ENDBRANCH   1   9
TORSDOF 4
ENDMDL
MODEL 6
REMARK VINA RESULT:      -4.5     23.054     23.743
REMARK  4 active torsions:
REMARK  status: ('A' for Active; 'I' for Inactive)
REMARK    1  A    between atoms: C2_2  and  C4_4 
REMARK    2  A    between atoms: C4_4  and  C6_6 
REMARK    3  A    between atoms: C6_6  and  C7_7 
REMARK    4  A    between atoms: C7_7  and  C9_9 
ROOT
ATOM      1  C7  UNK d          31.195  30.331   6.108  0.00  0.00     0.104 C 
ATOM      2  O8  UNK d          31.115  30.423   4.613  0.00  0.00    -0.195 OA
ENDROOT
BRANCH   1   3
ATOM      3  C6  UNK d          31.467  29.010   6.765  0.00  0.00     0.098 C 
BRANCH   3   4
ATOM      4  C4  UNK d          30.335  28.073   7.063  0.00  0.00     0.245 C 
ATOM      5  O5  UNK d          29.328  27.751   5.998  0.00  0.00    -0.211 OA
BRANCH   4   6
ATOM      6  C2  UNK d          30.208  27.459   8.425  0.00  0.00     0.218 C 
ATOM      7  O1  UNK d          29.101  27.888   9.342  0.00  0.00    -0.645 OA
ATOM      8  O3  UNK d          31.188  26.414   8.871  0.00  0.00    -0.645 OA
ENDBRANCH   4   6
ENDBRANCH   3   4
ENDBRANCH   1   3
BRANCH   1   9
ATOM      9  C9  UNK d          31.003  31.560   6.946  0.00  0.00    -0.023 A 
ATOM     10  C10 UNK d          31.740  32.822   6.607  0.00  0.00     0.024 A 
ATOM     11  C11 UNK d          31.548  34.051   7.445  0.00  0.00     0.004 A 
ATOM     12  C12 UNK d          30.619  34.019   8.622  0.00  0.00     0.001 A 
ATOM     13  C13 UNK d          29.883  32.757   8.962  0.00  0.00     0.004 A 
ATOM     14  C14 UNK d          30.075  31.528   8.124  0.00  0.00     0.024 A 
ENDBRANCH   1   9
TORSDOF 4
ENDMDL
MODEL 7
REMARK VINA RESULT:      -4.5     22.639     23.203
REMARK  4 active torsions:
REMARK  status: ('A' for Active; 'I' for Inactive)
REMARK    1  A    between atoms: C2_2  and  C4_4 
REMARK    2  A    between atoms: C4_4  and  C6_6 
REMARK    3  A    between atoms: C6_6  and  C7_7 
REMARK    4  A    between atoms: C7_7  and  C9_9 
ROOT
ATOM      1  C7  UNK d          31.409  30.489   5.783  0.00  0.00     0.104 C 
ATOM      2  O8  UNK d          31.410  30.405   4.285  0.00  0.00    -0.195 OA
ENDROOT
BRANCH   1   3
ATOM      3  C6  UNK d          31.335  29.236   6.604  0.00  0.00     0.098 C 
BRANCH   3   4
ATOM      4  C4  UNK d          30.025  28.524   6.769  0.00  0.00     0.245 C 
ATOM      5  O5  UNK d          29.596  27.500   5.761  0.00  0.00    -0.211 OA
BRANCH   4   6
ATOM      6  C2  UNK d          29.144  28.837   7.942  0.00  0.00     0.218 C 
ATOM      7  O1  UNK d          29.163  27.951   9.153  0.00  0.00    -0.645 OA
ATOM      8  O3  UNK d          28.243  30.036   7.905  0.00  0.00    -0.645 OA
ENDBRANCH   4   6
ENDBRANCH   3   4
ENDBRANCH   1   3
BRANCH   1   9
ATOM      9  C9  UNK d          31.482  31.826   6.459  0.00  0.00    -0.023 A 
ATOM     10  C10 UNK d          30.958  31.990   7.855  0.00  0.00     0.024 A 
ATOM     11  C11 UNK d          31.031  33.327   8.531  0.00  0.00     0.004 A 
ATOM     12  C12 UNK d          31.629  34.500   7.811  0.00  0.00     0.001 A 
ATOM     13  C13 UNK d          32.154  34.335   6.416  0.00  0.00     0.004 A 
ATOM     14  C14 UNK d          32.081  32.998   5.740  0.00  0.00     0.024 A 
ENDBRANCH   1   9
TORSDOF 4
ENDMDL
MODEL 8
REMARK VINA RESULT:      -4.5     22.737     23.573
REMARK  4 active torsions:
REMARK  status: ('A' for Active; 'I' for Inactive)
REMARK    1  A    between atoms: C2_2  and  C4_4 
REMARK    2  A    between atoms: C4_4  and  C6_6 
REMARK    3  A    between atoms: C6_6  and  C7_7 
REMARK    4  A    between atoms: C7_7  and  C9_9 
ROOT
ATOM      1  C7  UNK d          31.323  32.140   7.173  0.00  0.00     0.104 C 
ATOM      2  O8  UNK d          31.684  32.980   5.983  0.00  0.00    -0.195 OA
ENDROOT
BRANCH   1   3
ATOM      3  C6  UNK d          31.479  30.650   7.114  0.00  0.00     0.098 C 
BRANCH   3   4
ATOM      4  C4  UNK d          30.692  29.852   6.116  0.00  0.00     0.245 C 
ATOM      5  O5  UNK d          31.003  29.964   4.653  0.00  0.00    -0.211 OA
BRANCH   4   6
ATOM      6  C2  UNK d          29.594  28.943   6.582  0.00  0.00     0.218 C 
ATOM      7  O1  UNK d          29.362  27.632   5.891  0.00  0.00    -0.645 OA
ATOM      8  O3  UNK d          28.728  29.344   7.739  0.00  0.00    -0.645 OA
ENDBRANCH   4   6
ENDBRANCH   3   4
ENDBRANCH   1   3
BRANCH   1   9
ATOM      9  C9  UNK d          30.806  32.791   8.421  0.00  0.00    -0.023 A 
ATOM     10  C10 UNK d          30.666  34.283   8.486  0.00  0.00     0.024 A 
ATOM     11  C11 UNK d          30.149  34.934   9.735  0.00  0.00     0.004 A 
ATOM     12  C12 UNK d          29.772  34.093  10.918  0.00  0.00     0.001 A 
ATOM     13  C13 UNK d          29.912  32.601  10.853  0.00  0.00     0.004 A 
ATOM     14  C14 UNK d          30.429  31.950   9.605  0.00  0.00     0.024 A 
ENDBRANCH   1   9
TORSDOF 4
ENDMDL
MODEL 9
REMARK VINA RESULT:      -4.2     23.615     24.065
REMARK  4 active torsions:
REMARK  status: ('A' for Active; 'I' for Inactive)
REMARK    1  A    between atoms: C2_2  and  C4_4 
REMARK    2  A    between atoms: C4_4  and  C6_6 
REMARK    3  A    between atoms: C6_6  and  C7_7 
REMARK    4  A    between atoms: C7_7  and  C9_9 
ROOT
ATOM      1  C7  UNK d          29.931  33.524   9.640  0.00  0.00     0.104 C 
ATOM      2  O8  UNK d          29.368  34.909   9.511  0.00  0.00    -0.195 OA
ENDROOT
BRANCH   1   3
ATOM      3  C6  UNK d          29.988  32.861  10.983  0.00  0.00     0.098 C 
BRANCH   3   4
ATOM      4  C4  UNK d          30.301  33.670  12.207  0.00  0.00     0.245 C 
ATOM      5  O5  UNK d          31.361  34.730  12.154  0.00  0.00    -0.211 OA
BRANCH   4   6
ATOM      6  C2  UNK d          29.554  33.420  13.483  0.00  0.00     0.218 C 
ATOM      7  O1  UNK d          29.392  32.019  13.995  0.00  0.00    -0.645 OA
ATOM      8  O3  UNK d          28.968  34.570  14.247  0.00  0.00    -0.645 OA
ENDBRANCH   4   6
ENDBRANCH   3   4
ENDBRANCH   1   3
BRANCH   1   9
ATOM      9  C9  UNK d          30.435  32.804   8.425  0.00  0.00    -0.023 A 
ATOM     10  C10 UNK d          31.401  33.481   7.498  0.00  0.00     0.024 A 
ATOM     11  C11 UNK d          31.906  32.760   6.283  0.00  0.00     0.004 A 
ATOM     12  C12 UNK d          31.445  31.362   5.995  0.00  0.00     0.001 A 
ATOM     13  C13 UNK d          30.479  30.685   6.922  0.00  0.00     0.004 A 
ATOM     14  C14 UNK d          29.974  31.406   8.137  0.00  0.00     0.024 A 
ENDBRANCH   1   9
TORSDOF 4
ENDMDL
