MODEL 1
REMARK VINA RESULT:      -5.0      0.000      0.000
REMARK  4 active torsions:
REMARK  status: ('A' for Active; 'I' for Inactive)
REMARK    1  A    between atoms: C2_2  and  C4_4 
REMARK    2  A    between atoms: C4_4  and  C6_6 
REMARK    3  A    between atoms: C6_6  and  C7_7 
REMARK    4  A    between atoms: C7_7  and  C9_9 
ROOT
ATOM      1  C7  UNK d          13.199  36.812  -6.541  0.00  0.00     0.104 C 
ATOM      2  O8  UNK d          12.827  35.735  -5.566  0.00  0.00    -0.195 OA
ENDROOT
BRANCH   1   3
ATOM      3  C6  UNK d          12.628  38.190  -6.390  0.00  0.00     0.098 C 
BRANCH   3   4
ATOM      4  C4  UNK d          13.108  39.085  -5.286  0.00  0.00     0.245 C 
ATOM      5  O5  UNK d          14.567  39.414  -5.168  0.00  0.00    -0.211 OA
BRANCH   4   6
ATOM      6  C2  UNK d          12.130  39.651  -4.299  0.00  0.00     0.218 C 
ATOM      7  O1  UNK d          12.414  39.566  -2.829  0.00  0.00    -0.645 OA
ATOM      8  O3  UNK d          10.868  40.301  -4.783  0.00  0.00    -0.645 OA
ENDBRANCH   4   6
ENDBRANCH   3   4
ENDBRANCH   1   3
BRANCH   1   9
ATOM      9  C9  UNK d          14.144  36.511  -7.667  0.00  0.00    -0.023 A 
ATOM     10  C10 UNK d          14.315  35.100  -8.145  0.00  0.00     0.024 A 
ATOM     11  C11 UNK d          15.259  34.799  -9.271  0.00  0.00     0.004 A 
ATOM     12  C12 UNK d          16.032  35.909  -9.919  0.00  0.00     0.001 A 
ATOM     13  C13 UNK d          15.861  37.320  -9.440  0.00  0.00     0.004 A 
ATOM     14  C14 UNK d          14.917  37.621  -8.314  0.00  0.00     0.024 A 
ENDBRANCH   1   9
TORSDOF 4
ENDMDL
MODEL 2
REMARK VINA RESULT:      -4.9      1.076      1.814
REMARK  4 active torsions:
REMARK  status: ('A' for Active; 'I' for Inactive)
REMARK    1  A    between atoms: C2_2  and  C4_4 
REMARK    2  A    between atoms: C4_4  and  C6_6 
REMARK    3  A    between atoms: C6_6  and  C7_7 
REMARK    4  A    between atoms: C7_7  and  C9_9 
ROOT
ATOM      1  C7  UNK d          13.386  35.930  -7.208  0.00  0.00     0.104 C 
ATOM      2  O8  UNK d          12.965  34.617  -6.616  0.00  0.00    -0.195 OA
ENDROOT
BRANCH   1   3
ATOM      3  C6  UNK d          12.718  37.199  -6.768  0.00  0.00     0.098 C 
BRANCH   3   4
ATOM      4  C4  UNK d          12.885  37.686  -5.359  0.00  0.00     0.245 C 
ATOM      5  O5  UNK d          12.455  36.821  -4.211  0.00  0.00    -0.211 OA
BRANCH   4   6
ATOM      6  C2  UNK d          13.483  39.037  -5.098  0.00  0.00     0.218 C 
ATOM      7  O1  UNK d          12.670  40.097  -4.417  0.00  0.00    -0.645 OA
ATOM      8  O3  UNK d          14.893  39.327  -5.518  0.00  0.00    -0.645 OA
ENDBRANCH   4   6
ENDBRANCH   3   4
ENDBRANCH   1   3
BRANCH   1   9
ATOM      9  C9  UNK d          14.474  35.974  -8.239  0.00  0.00    -0.023 A 
ATOM     10  C10 UNK d          14.956  34.703  -8.875  0.00  0.00     0.024 A 
ATOM     11  C11 UNK d          16.045  34.747  -9.906  0.00  0.00     0.004 A 
ATOM     12  C12 UNK d          16.651  36.061 -10.301  0.00  0.00     0.001 A 
ATOM     13  C13 UNK d          16.169  37.331  -9.665  0.00  0.00     0.004 A 
ATOM     14  C14 UNK d          15.081  37.287  -8.634  0.00  0.00     0.024 A 
ENDBRANCH   1   9
TORSDOF 4
ENDMDL
MODEL 3
REMARK VINA RESULT:      -4.8      1.464      1.951
REMARK  4 active torsions:
REMARK  status: ('A' for Active; 'I' for Inactive)
REMARK    1  A    between atoms: C2_2  and  C4_4 
REMARK    2  A    between atoms: C4_4  and  C6_6 
REMARK    3  A    between atoms: C6_6  and  C7_7 
REMARK    4  A    between atoms: C7_7  and  C9_9 
ROOT
ATOM      1  C7  UNK d          13.948  38.584  -5.975  0.00  0.00     0.104 C 
ATOM      2  O8  UNK d          14.852  39.579  -5.311  0.00  0.00    -0.195 OA
ENDROOT
BRANCH   1   3
ATOM      3  C6  UNK d          12.559  38.365  -5.451  0.00  0.00     0.098 C 
BRANCH   3   4
ATOM      4  C4  UNK d          11.658  39.539  -5.202  0.00  0.00     0.245 C 
ATOM      5  O5  UNK d          10.875  40.137  -6.333  0.00  0.00    -0.211 OA
BRANCH   4   6
ATOM      6  C2  UNK d          11.541  40.114  -3.822  0.00  0.00     0.218 C 
ATOM      7  O1  UNK d          12.437  39.622  -2.725  0.00  0.00    -0.645 OA
ATOM      8  O3  UNK d          10.526  41.182  -3.538  0.00  0.00    -0.645 OA
ENDBRANCH   4   6
ENDBRANCH   3   4
ENDBRANCH   1   3
BRANCH   1   9
ATOM      9  C9  UNK d          14.431  37.807  -7.164  0.00  0.00    -0.023 A 
ATOM     10  C10 UNK d          13.850  36.457  -7.465  0.00  0.00     0.024 A 
ATOM     11  C11 UNK d          14.334  35.681  -8.653  0.00  0.00     0.004 A 
ATOM     12  C12 UNK d          15.398  36.254  -9.541  0.00  0.00     0.001 A 
ATOM     13  C13 UNK d          15.979  37.604  -9.241  0.00  0.00     0.004 A 
ATOM     14  C14 UNK d          15.495  38.380  -8.052  0.00  0.00     0.024 A 
ENDBRANCH   1   9
TORSDOF 4
ENDMDL
MODEL 4
REMARK VINA RESULT:      -4.7      1.413      2.560
REMARK  4 active torsions:
REMARK  status: ('A' for Active; 'I' for Inactive)
REMARK    1  A    between atoms: C2_2  and  C4_4 
REMARK    2  A    between atoms: C4_4  and  C6_6 
REMARK    3  A    between atoms: C6_6  and  C7_7 
REMARK    4  A    between atoms: C7_7  and  C9_9 
ROOT
ATOM      1  C7  UNK d          13.883  38.651  -5.883  0.00  0.00     0.104 C 
ATOM      2  O8  UNK d          14.882  39.632  -5.346  0.00  0.00    -0.195 OA
ENDROOT
BRANCH   1   3
ATOM      3  C6  UNK d          12.508  38.580  -5.289  0.00  0.00     0.098 C 
BRANCH   3   4
ATOM      4  C4  UNK d          12.112  39.530  -4.198  0.00  0.00     0.245 C 
ATOM      5  O5  UNK d          12.236  39.116  -2.761  0.00  0.00    -0.211 OA
BRANCH   4   6
ATOM      6  C2  UNK d          11.592  40.894  -4.543  0.00  0.00     0.218 C 
ATOM      7  O1  UNK d          10.188  41.057  -5.044  0.00  0.00    -0.645 OA
ATOM      8  O3  UNK d          12.477  42.095  -4.386  0.00  0.00    -0.645 OA
ENDBRANCH   4   6
ENDBRANCH   3   4
ENDBRANCH   1   3
BRANCH   1   9
ATOM      9  C9  UNK d          14.259  37.741  -7.014  0.00  0.00    -0.023 A 
ATOM     10  C10 UNK d          15.261  38.190  -8.037  0.00  0.00     0.024 A 
ATOM     11  C11 UNK d          15.637  37.280  -9.168  0.00  0.00     0.004 A 
ATOM     12  C12 UNK d          15.012  35.920  -9.277  0.00  0.00     0.001 A 
ATOM     13  C13 UNK d          14.011  35.471  -8.254  0.00  0.00     0.004 A 
ATOM     14  C14 UNK d          13.634  36.381  -7.123  0.00  0.00     0.024 A 
ENDBRANCH   1   9
TORSDOF 4
ENDMDL
MODEL 5
REMARK VINA RESULT:      -4.6     22.699     23.466
REMARK  4 active torsions:
REMARK  status: ('A' for Active; 'I' for Inactive)
REMARK    1  A    between atoms: C2_2  and  C4_4 
REMARK    2  A    between atoms: C4_4  and  C6_6 
REMARK    3  A    between atoms: C6_6  and  C7_7 
REMARK    4  A    between atoms: C7_7  and  C9_9 
ROOT
ATOM      1  C7  UNK d          29.834  30.334   7.852  0.00  0.00     0.104 C 
ATOM      2  O8  UNK d          28.411  29.883   8.002  0.00  0.00    -0.195 OA
ENDROOT
BRANCH   1   3
ATOM      3  C6  UNK d          30.887  29.360   7.414  0.00  0.00     0.098 C 
BRANCH   3   4
ATOM      4  C4  UNK d          30.883  28.831   6.010  0.00  0.00     0.245 C 
ATOM      5  O5  UNK d          29.960  27.710   5.633  0.00  0.00    -0.211 OA
BRANCH   4   6
ATOM      6  C2  UNK d          31.801  29.424   4.982  0.00  0.00     0.218 C 
ATOM      7  O1  UNK d          33.058  28.703   4.595  0.00  0.00    -0.645 OA
ATOM      8  O3  UNK d          31.462  30.737   4.342  0.00  0.00    -0.645 OA
ENDBRANCH   4   6
ENDBRANCH   3   4
ENDBRANCH   1   3
BRANCH   1   9
ATOM      9  C9  UNK d          30.203  31.759   8.140  0.00  0.00    -0.023 A 
ATOM     10  C10 UNK d          31.234  32.451   7.299  0.00  0.00     0.024 A 
ATOM     11  C11 UNK d          31.604  33.876   7.587  0.00  0.00     0.004 A 
ATOM     12  C12 UNK d          30.942  34.609   8.717  0.00  0.00     0.001 A 
ATOM     13  C13 UNK d          29.910  33.916   9.557  0.00  0.00     0.004 A 
ATOM     14  C14 UNK d          29.541  32.491   9.269  0.00  0.00     0.024 A 
ENDBRANCH   1   9
TORSDOF 4
ENDMDL
MODEL 6
REMARK VINA RESULT:      -4.5     23.028     23.716
REMARK  4 active torsions:
REMARK  status: ('A' for Active; 'I' for Inactive)
REMARK    1  A    between atoms: C2_2  and  C4_4 
REMARK    2  A    between atoms: C4_4  and  C6_6 
REMARK    3  A    between atoms: C6_6  and  C7_7 
REMARK    4  A    between atoms: C7_7  and  C9_9 
ROOT
ATOM      1  C7  UNK d          31.181  30.325   6.090  0.00  0.00     0.104 C 
ATOM      2  O8  UNK d          31.085  30.408   4.595  0.00  0.00    -0.195 OA
ENDROOT
BRANCH   1   3
ATOM      3  C6  UNK d          31.452  29.007   6.751  0.00  0.00     0.098 C 
BRANCH   3   4
ATOM      4  C4  UNK d          30.320  28.065   7.038  0.00  0.00     0.245 C 
ATOM      5  O5  UNK d          29.330  27.732   5.961  0.00  0.00    -0.211 OA
BRANCH   4   6
ATOM      6  C2  UNK d          30.178  27.455   8.401  0.00  0.00     0.218 C 
ATOM      7  O1  UNK d          31.106  26.358   8.832  0.00  0.00    -0.645 OA
ATOM      8  O3  UNK d          29.109  27.943   9.333  0.00  0.00    -0.645 OA
ENDBRANCH   4   6
ENDBRANCH   3   4
ENDBRANCH   1   3
BRANCH   1   9
ATOM      9  C9  UNK d          31.007  31.561   6.922  0.00  0.00    -0.023 A 
ATOM     10  C10 UNK d          31.747  32.816   6.566  0.00  0.00     0.024 A 
ATOM     11  C11 UNK d          31.573  34.051   7.399  0.00  0.00     0.004 A 
ATOM     12  C12 UNK d          30.658  34.031   8.588  0.00  0.00     0.001 A 
ATOM     13  C13 UNK d          29.918  32.776   8.944  0.00  0.00     0.004 A 
ATOM     14  C14 UNK d          30.092  31.541   8.111  0.00  0.00     0.024 A 
ENDBRANCH   1   9
TORSDOF 4
ENDMDL
MODEL 7
REMARK VINA RESULT:      -4.5     22.727     23.556
REMARK  4 active torsions:
REMARK  status: ('A' for Active; 'I' for Inactive)
REMARK    1  A    between atoms: C2_2  and  C4_4 
REMARK    2  A    between atoms: C4_4  and  C6_6 
REMARK    3  A    between atoms: C6_6  and  C7_7 
REMARK    4  A    between atoms: C7_7  and  C9_9 
ROOT
ATOM      1  C7  UNK d          31.321  32.137   7.142  0.00  0.00     0.104 C 
ATOM      2  O8  UNK d          31.671  32.973   5.946  0.00  0.00    -0.195 OA
ENDROOT
BRANCH   1   3
ATOM      3  C6  UNK d          31.484  30.647   7.089  0.00  0.00     0.098 C 
BRANCH   3   4
ATOM      4  C4  UNK d          30.697  29.841   6.098  0.00  0.00     0.245 C 
ATOM      5  O5  UNK d          31.010  29.939   4.634  0.00  0.00    -0.211 OA
BRANCH   4   6
ATOM      6  C2  UNK d          29.597  28.938   6.571  0.00  0.00     0.218 C 
ATOM      7  O1  UNK d          28.729  29.352   7.722  0.00  0.00    -0.645 OA
ATOM      8  O3  UNK d          29.365  27.620   5.893  0.00  0.00    -0.645 OA
ENDBRANCH   4   6
ENDBRANCH   3   4
ENDBRANCH   1   3
BRANCH   1   9
ATOM      9  C9  UNK d          30.808  32.791   8.390  0.00  0.00    -0.023 A 
ATOM     10  C10 UNK d          30.690  34.285   8.460  0.00  0.00     0.024 A 
ATOM     11  C11 UNK d          30.177  34.939   9.709  0.00  0.00     0.004 A 
ATOM     12  C12 UNK d          29.783  34.100  10.888  0.00  0.00     0.001 A 
ATOM     13  C13 UNK d          29.901  32.606  10.818  0.00  0.00     0.004 A 
ATOM     14  C14 UNK d          30.414  31.952   9.569  0.00  0.00     0.024 A 
ENDBRANCH   1   9
TORSDOF 4
ENDMDL
MODEL 8
REMARK VINA RESULT:      -4.2     22.709     23.424
REMARK  4 active torsions:
REMARK  status: ('A' for Active; 'I' for Inactive)
REMARK    1  A    between atoms: C2_2  and  C4_4 
REMARK    2  A    between atoms: C4_4  and  C6_6 
REMARK    3  A    between atoms: C6_6  and  C7_7 
REMARK    4  A    between atoms: C7_7  and  C9_9 
ROOT
ATOM      1  C7  UNK d          31.527  30.601   6.063  0.00  0.00     0.104 C 
ATOM      2  O8  UNK d          31.460  30.708   4.569  0.00  0.00    -0.195 OA
ENDROOT
BRANCH   1   3
ATOM      3  C6  UNK d          31.895  29.297   6.706  0.00  0.00     0.098 C 
BRANCH   3   4
ATOM      4  C4  UNK d          30.842  28.257   6.949  0.00  0.00     0.245 C 
ATOM      5  O5  UNK d          30.823  27.497   8.243  0.00  0.00    -0.211 OA
BRANCH   4   6
ATOM      6  C2  UNK d          29.808  27.976   5.900  0.00  0.00     0.218 C 
ATOM      7  O1  UNK d          28.407  28.485   6.072  0.00  0.00    -0.645 OA
ATOM      8  O3  UNK d          30.175  27.187   4.678  0.00  0.00    -0.645 OA
ENDBRANCH   4   6
ENDBRANCH   3   4
ENDBRANCH   1   3
BRANCH   1   9
ATOM      9  C9  UNK d          31.225  31.798   6.916  0.00  0.00    -0.023 A 
ATOM     10  C10 UNK d          30.273  31.677   8.069  0.00  0.00     0.024 A 
ATOM     11  C11 UNK d          29.972  32.874   8.921  0.00  0.00     0.004 A 
ATOM     12  C12 UNK d          30.622  34.192   8.620  0.00  0.00     0.001 A 
ATOM     13  C13 UNK d          31.574  34.313   7.467  0.00  0.00     0.004 A 
ATOM     14  C14 UNK d          31.875  33.116   6.615  0.00  0.00     0.024 A 
ENDBRANCH   1   9
TORSDOF 4
ENDMDL
MODEL 9
REMARK VINA RESULT:      -4.2     22.894     23.727
REMARK  4 active torsions:
REMARK  status: ('A' for Active; 'I' for Inactive)
REMARK    1  A    between atoms: C2_2  and  C4_4 
REMARK    2  A    between atoms: C4_4  and  C6_6 
REMARK    3  A    between atoms: C6_6  and  C7_7 
REMARK    4  A    between atoms: C7_7  and  C9_9 
ROOT
ATOM      1  C7  UNK d          30.368  31.524   8.064  0.00  0.00     0.104 C 
ATOM      2  O8  UNK d          29.159  30.714   7.701  0.00  0.00    -0.195 OA
ENDROOT
BRANCH   1   3
ATOM      3  C6  UNK d          31.654  31.330   7.316  0.00  0.00     0.098 C 
BRANCH   3   4
ATOM      4  C4  UNK d          31.837  31.955   5.965  0.00  0.00     0.245 C 
ATOM      5  O5  UNK d          32.020  33.439   5.844  0.00  0.00    -0.211 OA
BRANCH   4   6
ATOM      6  C2  UNK d          31.838  31.097   4.735  0.00  0.00     0.218 C 
ATOM      7  O1  UNK d          32.620  31.519   3.527  0.00  0.00    -0.645 OA
ATOM      8  O3  UNK d          31.057  29.817   4.713  0.00  0.00    -0.645 OA
ENDBRANCH   4   6
ENDBRANCH   3   4
ENDBRANCH   1   3
BRANCH   1   9
ATOM      9  C9  UNK d          30.292  32.528   9.176  0.00  0.00    -0.023 A 
ATOM     10  C10 UNK d          30.186  32.065  10.599  0.00  0.00     0.024 A 
ATOM     11  C11 UNK d          30.110  33.070  11.710  0.00  0.00     0.004 A 
ATOM     12  C12 UNK d          30.139  34.537  11.399  0.00  0.00     0.001 A 
ATOM     13  C13 UNK d          30.245  34.999   9.976  0.00  0.00     0.004 A 
ATOM     14  C14 UNK d          30.321  33.995   8.865  0.00  0.00     0.024 A 
ENDBRANCH   1   9
TORSDOF 4
ENDMDL
