MODEL 1
REMARK VINA RESULT:     -11.4      0.000      0.000
REMARK  3 active torsions:
REMARK  status: ('A' for Active; 'I' for Inactive)
REMARK    1  A    between atoms: C1_1  and  C5_5 
REMARK    2  A    between atoms: C2_2  and  C5_5 
REMARK    3  A    between atoms: C5_5  and  C12_12 
ROOT
ATOM      1  C5  UNK d           9.301  39.686   4.953  0.00  0.00     0.017 C 
ENDROOT
BRANCH   1   2
ATOM      2  C1  UNK d           9.531  40.017   5.407  0.00  0.00     0.103 A 
ATOM      3  C3  UNK d           9.236  40.050   5.945  0.00  0.00     0.203 A 
ATOM      4  C10 UNK d           9.466  40.377   6.391  0.00  0.00     0.062 A 
ATOM      5  O25 UNK d           8.719  39.754   6.019  0.00  0.00    -0.286 OA
ATOM      6  C28 UNK d           9.172  40.408   6.921  0.00  0.00     0.005 A 
ATOM      7  C13 UNK d           9.989  40.677   6.316  0.00  0.00     0.106 A 
ATOM      8  C31 UNK d           9.401  40.738   7.375  0.00  0.00     0.000 A 
ATOM      9  C33 UNK d           9.918  41.034   7.301  0.00  0.00     0.002 A 
ATOM     10  C30 UNK d          10.215  41.006   6.770  0.00  0.00     0.025 A 
ATOM     11  O8  UNK d          10.280  40.648   5.794  0.00  0.00    -0.273 OA
ATOM     12  C6  UNK d          10.054  40.317   5.332  0.00  0.00     0.303 A 
ATOM     13  O18 UNK d          10.316  40.311   4.912  0.00  0.00    -0.259 OA
ENDBRANCH   1   2
BRANCH   1  14
ATOM     14  C2  UNK d           8.884  39.924   4.586  0.00  0.00     0.103 A 
ATOM     15  C4  UNK d           9.047  40.219   4.080  0.00  0.00     0.203 A 
ATOM     16  C11 UNK d           8.630  40.457   3.712  0.00  0.00     0.062 A 
ATOM     17  O24 UNK d           9.643  40.275   3.946  0.00  0.00    -0.286 OA
ATOM     18  C27 UNK d           8.794  40.750   3.210  0.00  0.00     0.005 A 
ATOM     19  C14 UNK d           8.044  40.399   3.848  0.00  0.00     0.106 A 
ATOM     20  C32 UNK d           8.377  40.988   2.843  0.00  0.00     0.000 A 
ATOM     21  C34 UNK d           7.791  40.930   2.978  0.00  0.00     0.002 A 
ATOM     22  C29 UNK d           7.619  40.636   3.482  0.00  0.00     0.025 A 
ATOM     23  O9  UNK d           7.873  40.103   4.355  0.00  0.00    -0.273 OA
ATOM     24  C7  UNK d           8.298  39.866   4.721  0.00  0.00     0.303 A 
ATOM     25  O17 UNK d           7.936  39.692   5.036  0.00  0.00    -0.259 OA
ENDBRANCH   1  14
BRANCH   1  26
ATOM     26  C12 UNK d           9.492  39.111   4.865  0.00  0.00     0.003 A 
ATOM     27  C15 UNK d           9.159  38.649   5.070  0.00  0.00     0.026 A 
ATOM     28  C16 UNK d           9.354  38.081   4.979  0.00  0.00     0.119 A 
ATOM     29  O20 UNK d           9.111  37.537   5.136  0.00  0.00    -0.300 OA
ATOM     30  C19 UNK d           9.876  37.975   4.688  0.00  0.00     0.119 A 
ATOM     31  C22 UNK d           9.486  37.102   4.938  0.00  0.00     0.304 A 
ATOM     32  O21 UNK d           9.961  37.368   4.661  0.00  0.00    -0.300 OA
ATOM     33  C26 UNK d          10.211  38.441   4.482  0.00  0.00     0.026 A 
ATOM     34  C23 UNK d          10.019  39.011   4.571  0.00  0.00     0.002 A 
ENDBRANCH   1  26
TORSDOF 3
ENDMDL
MODEL 2
REMARK VINA RESULT:     -11.2      0.055      2.683
REMARK  3 active torsions:
REMARK  status: ('A' for Active; 'I' for Inactive)
REMARK    1  A    between atoms: C1_1  and  C5_5 
REMARK    2  A    between atoms: C2_2  and  C5_5 
REMARK    3  A    between atoms: C5_5  and  C12_12 
ROOT
ATOM      1  C5  UNK d           9.277  39.665   4.958  0.00  0.00     0.017 C 
ENDROOT
BRANCH   1   2
ATOM      2  C1  UNK d           8.860  39.906   4.588  0.00  0.00     0.103 A 
ATOM      3  C3  UNK d           9.033  40.207   4.082  0.00  0.00     0.203 A 
ATOM      4  C10 UNK d           8.619  40.443   3.719  0.00  0.00     0.062 A 
ATOM      5  O25 UNK d           9.617  40.262   3.954  0.00  0.00    -0.286 OA
ATOM      6  C28 UNK d           8.793  40.740   3.220  0.00  0.00     0.005 A 
ATOM      7  C13 UNK d           8.027  40.386   3.849  0.00  0.00     0.106 A 
ATOM      8  C31 UNK d           8.377  40.980   2.850  0.00  0.00     0.000 A 
ATOM      9  C33 UNK d           7.793  40.924   2.978  0.00  0.00     0.002 A 
ATOM     10  C30 UNK d           7.615  40.627   3.478  0.00  0.00     0.025 A 
ATOM     11  O8  UNK d           7.855  40.094   4.341  0.00  0.00    -0.273 OA
ATOM     12  C6  UNK d           8.269  39.849   4.718  0.00  0.00     0.303 A 
ATOM     13  O18 UNK d           8.097  39.613   5.118  0.00  0.00    -0.259 OA
ENDBRANCH   1   2
BRANCH   1  14
ATOM     14  C2  UNK d           9.505  39.993   5.412  0.00  0.00     0.103 A 
ATOM     15  C4  UNK d           9.214  40.030   5.945  0.00  0.00     0.203 A 
ATOM     16  C11 UNK d           9.442  40.357   6.400  0.00  0.00     0.062 A 
ATOM     17  O24 UNK d           8.684  39.730   6.017  0.00  0.00    -0.286 OA
ATOM     18  C27 UNK d           9.151  40.392   6.928  0.00  0.00     0.005 A 
ATOM     19  C14 UNK d           9.964  40.651   6.325  0.00  0.00     0.106 A 
ATOM     20  C32 UNK d           9.379  40.719   7.383  0.00  0.00     0.000 A 
ATOM     21  C34 UNK d           9.902  41.013   7.308  0.00  0.00     0.002 A 
ATOM     22  C29 UNK d          10.199  40.982   6.778  0.00  0.00     0.025 A 
ATOM     23  O9  UNK d          10.262  40.618   5.791  0.00  0.00    -0.273 OA
ATOM     24  C7  UNK d          10.028  40.286   5.337  0.00  0.00     0.303 A 
ATOM     25  O17 UNK d          10.422  40.409   5.038  0.00  0.00    -0.259 OA
ENDBRANCH   1  14
BRANCH   1  26
ATOM     26  C12 UNK d           9.468  39.089   4.872  0.00  0.00     0.003 A 
ATOM     27  C15 UNK d           9.134  38.629   5.075  0.00  0.00     0.026 A 
ATOM     28  C16 UNK d           9.330  38.060   4.986  0.00  0.00     0.119 A 
ATOM     29  O20 UNK d           9.085  37.516   5.143  0.00  0.00    -0.300 OA
ATOM     30  C19 UNK d           9.853  37.953   4.698  0.00  0.00     0.119 A 
ATOM     31  C22 UNK d           9.462  37.081   4.948  0.00  0.00     0.304 A 
ATOM     32  O21 UNK d           9.939  37.347   4.673  0.00  0.00    -0.300 OA
ATOM     33  C26 UNK d          10.190  38.419   4.494  0.00  0.00     0.026 A 
ATOM     34  C23 UNK d           9.997  38.989   4.581  0.00  0.00     0.002 A 
ENDBRANCH   1  26
TORSDOF 3
ENDMDL
MODEL 3
REMARK VINA RESULT:     -11.1     24.864     26.469
REMARK  3 active torsions:
REMARK  status: ('A' for Active; 'I' for Inactive)
REMARK    1  A    between atoms: C1_1  and  C5_5 
REMARK    2  A    between atoms: C2_2  and  C5_5 
REMARK    3  A    between atoms: C5_5  and  C12_12 
ROOT
ATOM      1  C5  UNK d          31.335  29.130  -4.336  0.00  0.00     0.017 C 
ENDROOT
BRANCH   1   2
ATOM      2  C1  UNK d          30.862  28.889  -4.042  0.00  0.00     0.103 A 
ATOM      3  C3  UNK d          30.940  28.633  -3.490  0.00  0.00     0.203 A 
ATOM      4  C10 UNK d          30.471  28.396  -3.202  0.00  0.00     0.062 A 
ATOM      5  O25 UNK d          31.487  28.621  -3.242  0.00  0.00    -0.286 OA
ATOM      6  C28 UNK d          30.551  28.143  -2.656  0.00  0.00     0.005 A 
ATOM      7  C13 UNK d          29.917  28.408  -3.453  0.00  0.00     0.106 A 
ATOM      8  C31 UNK d          30.079  27.903  -2.362  0.00  0.00     0.000 A 
ATOM      9  C33 UNK d          29.532  27.915  -2.609  0.00  0.00     0.002 A 
ATOM     10  C30 UNK d          29.448  28.167  -3.157  0.00  0.00     0.025 A 
ATOM     11  O8  UNK d          29.837  28.657  -3.990  0.00  0.00    -0.273 OA
ATOM     12  C6  UNK d          30.309  28.902  -4.293  0.00  0.00     0.303 A 
ATOM     13  O18 UNK d          30.212  29.101  -4.736  0.00  0.00    -0.259 OA
ENDBRANCH   1   2
BRANCH   1  14
ATOM     14  C2  UNK d          31.691  28.780  -4.677  0.00  0.00     0.103 A 
ATOM     15  C4  UNK d          31.570  28.696  -5.267  0.00  0.00     0.203 A 
ATOM     16  C11 UNK d          31.926  28.346  -5.609  0.00  0.00     0.062 A 
ATOM     17  O24 UNK d          31.082  28.972  -5.515  0.00  0.00    -0.286 OA
ATOM     18  C27 UNK d          31.805  28.264  -6.195  0.00  0.00     0.005 A 
ATOM     19  C14 UNK d          32.407  28.076  -5.362  0.00  0.00     0.106 A 
ATOM     20  C32 UNK d          32.160  27.914  -6.536  0.00  0.00     0.000 A 
ATOM     21  C34 UNK d          32.641  27.644  -6.289  0.00  0.00     0.002 A 
ATOM     22  C29 UNK d          32.769  27.723  -5.699  0.00  0.00     0.025 A 
ATOM     23  O9  UNK d          32.534  28.156  -4.768  0.00  0.00    -0.273 OA
ATOM     24  C7  UNK d          32.172  28.510  -4.430  0.00  0.00     0.303 A 
ATOM     25  O17 UNK d          32.462  28.422  -4.020  0.00  0.00    -0.259 OA
ENDBRANCH   1  14
BRANCH   1  26
ATOM     26  C12 UNK d          31.454  29.730  -4.288  0.00  0.00     0.003 A 
ATOM     27  C15 UNK d          31.891  29.920  -3.917  0.00  0.00     0.026 A 
ATOM     28  C16 UNK d          32.003  30.517  -3.875  0.00  0.00     0.119 A 
ATOM     29  O20 UNK d          32.413  30.831  -3.539  0.00  0.00    -0.300 OA
ATOM     30  C19 UNK d          31.683  30.916  -4.200  0.00  0.00     0.119 A 
ATOM     31  C22 UNK d          32.340  31.422  -3.662  0.00  0.00     0.304 A 
ATOM     32  O21 UNK d          31.889  31.479  -4.070  0.00  0.00    -0.300 OA
ATOM     33  C26 UNK d          31.242  30.723  -4.575  0.00  0.00     0.026 A 
ATOM     34  C23 UNK d          31.127  30.127  -4.619  0.00  0.00     0.002 A 
ENDBRANCH   1  26
TORSDOF 3
ENDMDL
MODEL 4
REMARK VINA RESULT:     -11.0     24.868     26.351
REMARK  3 active torsions:
REMARK  status: ('A' for Active; 'I' for Inactive)
REMARK    1  A    between atoms: C1_1  and  C5_5 
REMARK    2  A    between atoms: C2_2  and  C5_5 
REMARK    3  A    between atoms: C5_5  and  C12_12 
ROOT
ATOM      1  C5  UNK d          31.507  29.101  -4.262  0.00  0.00     0.017 C 
ENDROOT
BRANCH   1   2
ATOM      2  C1  UNK d          31.184  28.836  -3.821  0.00  0.00     0.103 A 
ATOM      3  C3  UNK d          30.577  28.769  -3.881  0.00  0.00     0.203 A 
ATOM      4  C10 UNK d          30.262  28.506  -3.443  0.00  0.00     0.062 A 
ATOM      5  O25 UNK d          30.303  28.966  -4.377  0.00  0.00    -0.286 OA
ATOM      6  C28 UNK d          29.662  28.442  -3.505  0.00  0.00     0.005 A 
ATOM      7  C13 UNK d          30.540  28.307  -2.940  0.00  0.00     0.106 A 
ATOM      8  C31 UNK d          29.340  28.177  -3.064  0.00  0.00     0.000 A 
ATOM      9  C33 UNK d          29.614  27.980  -2.568  0.00  0.00     0.002 A 
ATOM     10  C30 UNK d          30.215  28.043  -2.503  0.00  0.00     0.025 A 
ATOM     11  O8  UNK d          31.131  28.370  -2.879  0.00  0.00    -0.273 OA
ATOM     12  C6  UNK d          31.462  28.636  -3.319  0.00  0.00     0.303 A 
ATOM     13  O18 UNK d          31.949  28.675  -3.240  0.00  0.00    -0.259 OA
ENDBRANCH   1   2
BRANCH   1  14
ATOM     14  C2  UNK d          31.567  29.702  -4.275  0.00  0.00     0.103 A 
ATOM     15  C4  UNK d          32.035  29.973  -3.997  0.00  0.00     0.203 A 
ATOM     16  C11 UNK d          32.095  30.575  -4.010  0.00  0.00     0.062 A 
ATOM     17  O24 UNK d          32.447  29.629  -3.701  0.00  0.00    -0.286 OA
ATOM     18  C27 UNK d          32.561  30.843  -3.733  0.00  0.00     0.005 A 
ATOM     19  C14 UNK d          31.687  30.911  -4.303  0.00  0.00     0.106 A 
ATOM     20  C32 UNK d          32.621  31.444  -3.746  0.00  0.00     0.000 A 
ATOM     21  C34 UNK d          32.213  31.780  -4.038  0.00  0.00     0.002 A 
ATOM     22  C29 UNK d          31.742  31.517  -4.320  0.00  0.00     0.025 A 
ATOM     23  O9  UNK d          31.214  30.644  -4.585  0.00  0.00    -0.273 OA
ATOM     24  C7  UNK d          31.159  30.038  -4.568  0.00  0.00     0.303 A 
ATOM     25  O17 UNK d          30.732  30.064  -4.846  0.00  0.00    -0.259 OA
ENDBRANCH   1  14
BRANCH   1  26
ATOM     26  C12 UNK d          31.773  28.759  -4.696  0.00  0.00     0.003 A 
ATOM     27  C15 UNK d          31.506  28.698  -5.235  0.00  0.00     0.026 A 
ATOM     28  C16 UNK d          31.776  28.357  -5.660  0.00  0.00     0.119 A 
ATOM     29  O20 UNK d          31.609  28.220  -6.238  0.00  0.00    -0.300 OA
ATOM     30  C19 UNK d          32.305  28.081  -5.548  0.00  0.00     0.119 A 
ATOM     31  C22 UNK d          32.039  27.860  -6.474  0.00  0.00     0.304 A 
ATOM     32  O21 UNK d          32.470  27.772  -6.051  0.00  0.00    -0.300 OA
ATOM     33  C26 UNK d          32.572  28.143  -5.004  0.00  0.00     0.026 A 
ATOM     34  C23 UNK d          32.305  28.483  -4.576  0.00  0.00     0.002 A 
ENDBRANCH   1  26
TORSDOF 3
ENDMDL
MODEL 5
REMARK VINA RESULT:     -10.9     24.896     26.509
REMARK  3 active torsions:
REMARK  status: ('A' for Active; 'I' for Inactive)
REMARK    1  A    between atoms: C1_1  and  C5_5 
REMARK    2  A    between atoms: C2_2  and  C5_5 
REMARK    3  A    between atoms: C5_5  and  C12_12 
ROOT
ATOM      1  C5  UNK d          31.401  29.103  -4.321  0.00  0.00     0.017 C 
ENDROOT
BRANCH   1   2
ATOM      2  C1  UNK d          31.757  28.754  -4.667  0.00  0.00     0.103 A 
ATOM      3  C3  UNK d          31.610  28.649  -5.253  0.00  0.00     0.203 A 
ATOM      4  C10 UNK d          31.964  28.302  -5.592  0.00  0.00     0.062 A 
ATOM      5  O25 UNK d          31.113  28.893  -5.484  0.00  0.00    -0.286 OA
ATOM      6  C28 UNK d          31.815  28.201  -6.172  0.00  0.00     0.005 A 
ATOM      7  C13 UNK d          32.467  28.055  -5.359  0.00  0.00     0.106 A 
ATOM      8  C31 UNK d          32.171  27.851  -6.518  0.00  0.00     0.000 A 
ATOM      9  C33 UNK d          32.668  27.607  -6.287  0.00  0.00     0.002 A 
ATOM     10  C30 UNK d          32.819  27.707  -5.706  0.00  0.00     0.025 A 
ATOM     11  O8  UNK d          32.614  28.154  -4.788  0.00  0.00    -0.273 OA
ATOM     12  C6  UNK d          32.260  28.506  -4.433  0.00  0.00     0.303 A 
ATOM     13  O18 UNK d          32.407  28.571  -3.965  0.00  0.00    -0.259 OA
ENDBRANCH   1   2
BRANCH   1  14
ATOM     14  C2  UNK d          30.920  28.865  -4.042  0.00  0.00     0.103 A 
ATOM     15  C4  UNK d          30.970  28.633  -3.482  0.00  0.00     0.203 A 
ATOM     16  C11 UNK d          30.489  28.395  -3.203  0.00  0.00     0.062 A 
ATOM     17  O24 UNK d          31.515  28.642  -3.202  0.00  0.00    -0.286 OA
ATOM     18  C27 UNK d          30.540  28.165  -2.646  0.00  0.00     0.005 A 
ATOM     19  C14 UNK d          29.953  28.389  -3.482  0.00  0.00     0.106 A 
ATOM     20  C32 UNK d          30.059  27.927  -2.367  0.00  0.00     0.000 A 
ATOM     21  C34 UNK d          29.524  27.920  -2.646  0.00  0.00     0.002 A 
ATOM     22  C29 UNK d          29.465  28.151  -3.207  0.00  0.00     0.025 A 
ATOM     23  O9  UNK d          29.897  28.621  -4.046  0.00  0.00    -0.273 OA
ATOM     24  C7  UNK d          30.385  28.859  -4.321  0.00  0.00     0.303 A 
ATOM     25  O17 UNK d          30.104  28.970  -4.732  0.00  0.00    -0.259 OA
ENDBRANCH   1  14
BRANCH   1  26
ATOM     26  C12 UNK d          31.529  29.699  -4.253  0.00  0.00     0.003 A 
ATOM     27  C15 UNK d          31.246  30.107  -4.598  0.00  0.00     0.026 A 
ATOM     28  C16 UNK d          31.378  30.696  -4.525  0.00  0.00     0.119 A 
ATOM     29  O20 UNK d          31.163  31.200  -4.810  0.00  0.00    -0.300 OA
ATOM     30  C19 UNK d          31.786  30.875  -4.114  0.00  0.00     0.119 A 
ATOM     31  C22 UNK d          31.442  31.682  -4.568  0.00  0.00     0.304 A 
ATOM     32  O21 UNK d          31.828  31.486  -4.137  0.00  0.00    -0.300 OA
ATOM     33  C26 UNK d          32.070  30.462  -3.766  0.00  0.00     0.026 A 
ATOM     34  C23 UNK d          31.941  29.872  -3.836  0.00  0.00     0.002 A 
ENDBRANCH   1  26
TORSDOF 3
ENDMDL
MODEL 6
REMARK VINA RESULT:     -10.9     24.754     26.340
REMARK  3 active torsions:
REMARK  status: ('A' for Active; 'I' for Inactive)
REMARK    1  A    between atoms: C1_1  and  C5_5 
REMARK    2  A    between atoms: C2_2  and  C5_5 
REMARK    3  A    between atoms: C5_5  and  C12_12 
ROOT
ATOM      1  C5  UNK d          31.472  29.056  -4.265  0.00  0.00     0.017 C 
ENDROOT
BRANCH   1   2
ATOM      2  C1  UNK d          31.753  29.568  -4.102  0.00  0.00     0.103 A 
ATOM      3  C3  UNK d          31.583  30.104  -4.349  0.00  0.00     0.203 A 
ATOM      4  C10 UNK d          31.863  30.609  -4.186  0.00  0.00     0.062 A 
ATOM      5  O25 UNK d          31.138  30.119  -4.751  0.00  0.00    -0.286 OA
ATOM      6  C28 UNK d          31.693  31.137  -4.431  0.00  0.00     0.005 A 
ATOM      7  C13 UNK d          32.313  30.594  -3.778  0.00  0.00     0.106 A 
ATOM      8  C31 UNK d          31.973  31.650  -4.269  0.00  0.00     0.000 A 
ATOM      9  C33 UNK d          32.418  31.635  -3.867  0.00  0.00     0.002 A 
ATOM     10  C30 UNK d          32.591  31.107  -3.618  0.00  0.00     0.025 A 
ATOM     11  O8  UNK d          32.481  30.074  -3.536  0.00  0.00    -0.273 OA
ATOM     12  C6  UNK d          32.203  29.553  -3.695  0.00  0.00     0.303 A 
ATOM     13  O18 UNK d          32.364  29.138  -3.477  0.00  0.00    -0.259 OA
ENDBRANCH   1   2
BRANCH   1  14
ATOM     14  C2  UNK d          30.961  28.888  -3.988  0.00  0.00     0.103 A 
ATOM     15  C4  UNK d          30.978  28.535  -3.493  0.00  0.00     0.203 A 
ATOM     16  C11 UNK d          30.467  28.367  -3.216  0.00  0.00     0.062 A 
ATOM     17  O24 UNK d          31.520  28.350  -3.276  0.00  0.00    -0.286 OA
ATOM     18  C27 UNK d          30.485  28.016  -2.724  0.00  0.00     0.005 A 
ATOM     19  C14 UNK d          29.934  28.551  -3.433  0.00  0.00     0.106 A 
ATOM     20  C32 UNK d          29.975  27.848  -2.448  0.00  0.00     0.000 A 
ATOM     21  C34 UNK d          29.442  28.033  -2.665  0.00  0.00     0.002 A 
ATOM     22  C29 UNK d          29.416  28.386  -3.159  0.00  0.00     0.025 A 
ATOM     23  O9  UNK d          29.911  28.907  -3.931  0.00  0.00    -0.273 OA
ATOM     24  C7  UNK d          30.429  29.072  -4.205  0.00  0.00     0.303 A 
ATOM     25  O17 UNK d          30.165  29.335  -4.554  0.00  0.00    -0.259 OA
ENDBRANCH   1  14
BRANCH   1  26
ATOM     26  C12 UNK d          31.706  28.705  -4.710  0.00  0.00     0.003 A 
ATOM     27  C15 UNK d          31.482  28.743  -5.271  0.00  0.00     0.026 A 
ATOM     28  C16 UNK d          31.719  28.393  -5.707  0.00  0.00     0.119 A 
ATOM     29  O20 UNK d          31.581  28.340  -6.306  0.00  0.00    -0.300 OA
ATOM     30  C19 UNK d          32.173  28.010  -5.586  0.00  0.00     0.119 A 
ATOM     31  C22 UNK d          31.954  27.923  -6.545  0.00  0.00     0.304 A 
ATOM     32  O21 UNK d          32.322  27.717  -6.103  0.00  0.00    -0.300 OA
ATOM     33  C26 UNK d          32.398  27.972  -5.020  0.00  0.00     0.026 A 
ATOM     34  C23 UNK d          32.164  28.321  -4.581  0.00  0.00     0.002 A 
ENDBRANCH   1  26
TORSDOF 3
ENDMDL
MODEL 7
REMARK VINA RESULT:     -10.8     26.527     28.698
REMARK  3 active torsions:
REMARK  status: ('A' for Active; 'I' for Inactive)
REMARK    1  A    between atoms: C1_1  and  C5_5 
REMARK    2  A    between atoms: C2_2  and  C5_5 
REMARK    3  A    between atoms: C5_5  and  C12_12 
ROOT
ATOM      1  C5  UNK d          28.752  20.094  -1.056  0.00  0.00     0.017 C 
ENDROOT
BRANCH   1   2
ATOM      2  C1  UNK d          28.768  20.044  -1.661  0.00  0.00     0.103 A 
ATOM      3  C3  UNK d          28.637  19.509  -1.930  0.00  0.00     0.203 A 
ATOM      4  C10 UNK d          28.654  19.464  -2.528  0.00  0.00     0.062 A 
ATOM      5  O25 UNK d          28.492  19.034  -1.593  0.00  0.00    -0.286 OA
ATOM      6  C28 UNK d          28.524  18.933  -2.791  0.00  0.00     0.005 A 
ATOM      7  C13 UNK d          28.801  19.945  -2.870  0.00  0.00     0.106 A 
ATOM      8  C31 UNK d          28.540  18.883  -3.396  0.00  0.00     0.000 A 
ATOM      9  C33 UNK d          28.685  19.358  -3.732  0.00  0.00     0.002 A 
ATOM     10  C30 UNK d          28.816  19.892  -3.472  0.00  0.00     0.025 A 
ATOM     11  O8  UNK d          28.930  20.468  -2.611  0.00  0.00    -0.273 OA
ATOM     12  C6  UNK d          28.915  20.526  -2.002  0.00  0.00     0.303 A 
ATOM     13  O18 UNK d          29.026  20.971  -1.816  0.00  0.00    -0.259 OA
ENDBRANCH   1   2
BRANCH   1  14
ATOM     14  C2  UNK d          29.235  19.941  -0.726  0.00  0.00     0.103 A 
ATOM     15  C4  UNK d          29.660  20.354  -0.588  0.00  0.00     0.203 A 
ATOM     16  C11 UNK d          30.142  20.201  -0.257  0.00  0.00     0.062 A 
ATOM     17  O24 UNK d          29.594  20.929  -0.789  0.00  0.00    -0.286 OA
ATOM     18  C27 UNK d          30.564  20.613  -0.122  0.00  0.00     0.005 A 
ATOM     19  C14 UNK d          30.204  19.633  -0.061  0.00  0.00     0.106 A 
ATOM     20  C32 UNK d          31.047  20.460   0.209  0.00  0.00     0.000 A 
ATOM     21  C34 UNK d          31.108  19.892   0.405  0.00  0.00     0.002 A 
ATOM     22  C29 UNK d          30.687  19.473   0.272  0.00  0.00     0.025 A 
ATOM     23  O9  UNK d          29.779  19.213  -0.196  0.00  0.00    -0.273 OA
ATOM     24  C7  UNK d          29.296  19.374  -0.529  0.00  0.00     0.303 A 
ATOM     25  O17 UNK d          29.115  18.897  -0.503  0.00  0.00    -0.259 OA
ENDBRANCH   1  14
BRANCH   1  26
ATOM     26  C12 UNK d          28.246  20.299  -0.779  0.00  0.00     0.003 A 
ATOM     27  C15 UNK d          27.854  19.906  -0.540  0.00  0.00     0.026 A 
ATOM     28  C16 UNK d          27.353  20.117  -0.266  0.00  0.00     0.119 A 
ATOM     29  O20 UNK d          26.886  19.824   0.010  0.00  0.00    -0.300 OA
ATOM     30  C19 UNK d          27.246  20.713  -0.231  0.00  0.00     0.119 A 
ATOM     31  C22 UNK d          26.497  20.245   0.212  0.00  0.00     0.304 A 
ATOM     32  O21 UNK d          26.716  20.796   0.065  0.00  0.00    -0.300 OA
ATOM     33  C26 UNK d          27.643  21.109  -0.472  0.00  0.00     0.026 A 
ATOM     34  C23 UNK d          28.144  20.902  -0.747  0.00  0.00     0.002 A 
ENDBRANCH   1  26
TORSDOF 3
ENDMDL
MODEL 8
REMARK VINA RESULT:     -10.7     26.532     28.599
REMARK  3 active torsions:
REMARK  status: ('A' for Active; 'I' for Inactive)
REMARK    1  A    between atoms: C1_1  and  C5_5 
REMARK    2  A    between atoms: C2_2  and  C5_5 
REMARK    3  A    between atoms: C5_5  and  C12_12 
ROOT
ATOM      1  C5  UNK d          28.732  20.065  -1.038  0.00  0.00     0.017 C 
ENDROOT
BRANCH   1   2
ATOM      2  C1  UNK d          29.218  19.916  -0.708  0.00  0.00     0.103 A 
ATOM      3  C3  UNK d          29.645  20.338  -0.578  0.00  0.00     0.203 A 
ATOM      4  C10 UNK d          30.124  20.186  -0.251  0.00  0.00     0.062 A 
ATOM      5  O25 UNK d          29.578  20.899  -0.779  0.00  0.00    -0.286 OA
ATOM      6  C28 UNK d          30.544  20.606  -0.125  0.00  0.00     0.005 A 
ATOM      7  C13 UNK d          30.191  19.617  -0.048  0.00  0.00     0.106 A 
ATOM      8  C31 UNK d          31.030  20.456   0.205  0.00  0.00     0.000 A 
ATOM      9  C33 UNK d          31.096  19.895   0.406  0.00  0.00     0.002 A 
ATOM     10  C30 UNK d          30.677  19.471   0.281  0.00  0.00     0.025 A 
ATOM     11  O8  UNK d          29.778  19.203  -0.172  0.00  0.00    -0.273 OA
ATOM     12  C6  UNK d          29.285  19.347  -0.505  0.00  0.00     0.303 A 
ATOM     13  O18 UNK d          28.960  18.984  -0.592  0.00  0.00    -0.259 OA
ENDBRANCH   1   2
BRANCH   1  14
ATOM     14  C2  UNK d          28.745  20.014  -1.640  0.00  0.00     0.103 A 
ATOM     15  C4  UNK d          28.618  19.483  -1.909  0.00  0.00     0.203 A 
ATOM     16  C11 UNK d          28.632  19.431  -2.512  0.00  0.00     0.062 A 
ATOM     17  O24 UNK d          28.475  18.999  -1.562  0.00  0.00    -0.286 OA
ATOM     18  C27 UNK d          28.505  18.903  -2.777  0.00  0.00     0.005 A 
ATOM     19  C14 UNK d          28.773  19.911  -2.851  0.00  0.00     0.106 A 
ATOM     20  C32 UNK d          28.518  18.851  -3.380  0.00  0.00     0.000 A 
ATOM     21  C34 UNK d          28.660  19.331  -3.718  0.00  0.00     0.002 A 
ATOM     22  C29 UNK d          28.788  19.865  -3.457  0.00  0.00     0.025 A 
ATOM     23  O9  UNK d          28.902  20.448  -2.586  0.00  0.00    -0.273 OA
ATOM     24  C7  UNK d          28.886  20.493  -1.979  0.00  0.00     0.303 A 
ATOM     25  O17 UNK d          29.017  20.986  -2.009  0.00  0.00    -0.259 OA
ENDBRANCH   1  14
BRANCH   1  26
ATOM     26  C12 UNK d          28.224  20.270  -0.762  0.00  0.00     0.003 A 
ATOM     27  C15 UNK d          27.834  19.875  -0.521  0.00  0.00     0.026 A 
ATOM     28  C16 UNK d          27.333  20.085  -0.249  0.00  0.00     0.119 A 
ATOM     29  O20 UNK d          26.867  19.792   0.030  0.00  0.00    -0.300 OA
ATOM     30  C19 UNK d          27.222  20.681  -0.217  0.00  0.00     0.119 A 
ATOM     31  C22 UNK d          26.476  20.212   0.229  0.00  0.00     0.304 A 
ATOM     32  O21 UNK d          26.692  20.763   0.078  0.00  0.00    -0.300 OA
ATOM     33  C26 UNK d          27.617  21.078  -0.461  0.00  0.00     0.026 A 
ATOM     34  C23 UNK d          28.119  20.872  -0.734  0.00  0.00     0.002 A 
ENDBRANCH   1  26
TORSDOF 3
ENDMDL
MODEL 9
REMARK VINA RESULT:     -10.7      1.989      3.012
REMARK  3 active torsions:
REMARK  status: ('A' for Active; 'I' for Inactive)
REMARK    1  A    between atoms: C1_1  and  C5_5 
REMARK    2  A    between atoms: C2_2  and  C5_5 
REMARK    3  A    between atoms: C5_5  and  C12_12 
ROOT
ATOM      1  C5  UNK d           8.063  37.539   4.840  0.00  0.00     0.017 C 
ENDROOT
BRANCH   1   2
ATOM      2  C1  UNK d           8.629  37.733   4.739  0.00  0.00     0.103 A 
ATOM      3  C3  UNK d           8.793  38.302   4.899  0.00  0.00     0.203 A 
ATOM      4  C10 UNK d           9.353  38.490   4.798  0.00  0.00     0.062 A 
ATOM      5  O25 UNK d           8.391  38.666   5.155  0.00  0.00    -0.286 OA
ATOM      6  C28 UNK d           9.512  39.054   4.957  0.00  0.00     0.005 A 
ATOM      7  C13 UNK d           9.761  38.121   4.539  0.00  0.00     0.106 A 
ATOM      8  C31 UNK d          10.078  39.248   4.857  0.00  0.00     0.000 A 
ATOM      9  C33 UNK d          10.480  38.883   4.601  0.00  0.00     0.002 A 
ATOM     10  C30 UNK d          10.324  38.317   4.440  0.00  0.00     0.025 A 
ATOM     11  O8  UNK d           9.605  37.565   4.382  0.00  0.00    -0.273 OA
ATOM     12  C6  UNK d           9.036  37.363   4.480  0.00  0.00     0.303 A 
ATOM     13  O18 UNK d           8.936  36.899   4.339  0.00  0.00    -0.259 OA
ENDBRANCH   1   2
BRANCH   1  14
ATOM     14  C2  UNK d           7.625  37.658   4.440  0.00  0.00     0.103 A 
ATOM     15  C4  UNK d           7.503  37.269   3.988  0.00  0.00     0.203 A 
ATOM     16  C11 UNK d           7.065  37.388   3.588  0.00  0.00     0.062 A 
ATOM     17  O24 UNK d           7.830  36.752   3.942  0.00  0.00    -0.286 OA
ATOM     18  C27 UNK d           6.946  37.001   3.140  0.00  0.00     0.005 A 
ATOM     19  C14 UNK d           6.746  37.898   3.637  0.00  0.00     0.106 A 
ATOM     20  C32 UNK d           6.508  37.120   2.740  0.00  0.00     0.000 A 
ATOM     21  C34 UNK d           6.188  37.630   2.789  0.00  0.00     0.002 A 
ATOM     22  C29 UNK d           6.304  38.024   3.238  0.00  0.00     0.025 A 
ATOM     23  O9  UNK d           6.863  38.294   4.089  0.00  0.00    -0.273 OA
ATOM     24  C7  UNK d           7.305  38.168   4.488  0.00  0.00     0.303 A 
ATOM     25  O17 UNK d           7.212  38.605   4.735  0.00  0.00    -0.259 OA
ENDBRANCH   1  14
BRANCH   1  26
ATOM     26  C12 UNK d           7.932  37.221   5.347  0.00  0.00     0.003 A 
ATOM     27  C15 UNK d           7.674  37.499   5.818  0.00  0.00     0.026 A 
ATOM     28  C16 UNK d           7.548  37.178   6.318  0.00  0.00     0.119 A 
ATOM     29  O20 UNK d           7.290  37.342   6.854  0.00  0.00    -0.300 OA
ATOM     30  C19 UNK d           7.678  36.586   6.348  0.00  0.00     0.119 A 
ATOM     31  C22 UNK d           7.265  36.848   7.207  0.00  0.00     0.304 A 
ATOM     32  O21 UNK d           7.504  36.378   6.898  0.00  0.00    -0.300 OA
ATOM     33  C26 UNK d           7.938  36.306   5.872  0.00  0.00     0.026 A 
ATOM     34  C23 UNK d           8.066  36.624   5.371  0.00  0.00     0.002 A 
ENDBRANCH   1  26
TORSDOF 3
ENDMDL
