MODEL 1
REMARK VINA RESULT:      -5.0      0.000      0.000
REMARK  4 active torsions:
REMARK  status: ('A' for Active; 'I' for Inactive)
REMARK    1  A    between atoms: C2_2  and  C4_4 
REMARK    2  A    between atoms: C4_4  and  C6_6 
REMARK    3  A    between atoms: C6_6  and  C7_7 
REMARK    4  A    between atoms: C7_7  and  C9_9 
ROOT
ATOM      1  C7  UNK d          13.199  36.846  -6.588  0.00  0.00     0.104 C 
ATOM      2  O8  UNK d          12.799  35.770  -5.622  0.00  0.00    -0.195 OA
ENDROOT
BRANCH   1   3
ATOM      3  C6  UNK d          12.647  38.232  -6.436  0.00  0.00     0.098 C 
BRANCH   3   4
ATOM      4  C4  UNK d          13.112  39.106  -5.309  0.00  0.00     0.245 C 
ATOM      5  O5  UNK d          14.571  39.418  -5.156  0.00  0.00    -0.211 OA
BRANCH   4   6
ATOM      6  C2  UNK d          12.119  39.668  -4.336  0.00  0.00     0.218 C 
ATOM      7  O1  UNK d          12.407  39.631  -2.864  0.00  0.00    -0.645 OA
ATOM      8  O3  UNK d          10.837  40.266  -4.834  0.00  0.00    -0.645 OA
ENDBRANCH   4   6
ENDBRANCH   3   4
ENDBRANCH   1   3
BRANCH   1   9
ATOM      9  C9  UNK d          14.150  36.535  -7.705  0.00  0.00    -0.023 A 
ATOM     10  C10 UNK d          14.316  35.122  -8.178  0.00  0.00     0.024 A 
ATOM     11  C11 UNK d          15.268  34.811  -9.295  0.00  0.00     0.004 A 
ATOM     12  C12 UNK d          16.053  35.915  -9.940  0.00  0.00     0.001 A 
ATOM     13  C13 UNK d          15.887  37.328  -9.467  0.00  0.00     0.004 A 
ATOM     14  C14 UNK d          14.936  37.639  -8.350  0.00  0.00     0.024 A 
ENDBRANCH   1   9
TORSDOF 4
ENDMDL
MODEL 2
REMARK VINA RESULT:      -4.9      1.073      1.811
REMARK  4 active torsions:
REMARK  status: ('A' for Active; 'I' for Inactive)
REMARK    1  A    between atoms: C2_2  and  C4_4 
REMARK    2  A    between atoms: C4_4  and  C6_6 
REMARK    3  A    between atoms: C6_6  and  C7_7 
REMARK    4  A    between atoms: C7_7  and  C9_9 
ROOT
ATOM      1  C7  UNK d          13.394  35.936  -7.205  0.00  0.00     0.104 C 
ATOM      2  O8  UNK d          12.981  34.626  -6.601  0.00  0.00    -0.195 OA
ENDROOT
BRANCH   1   3
ATOM      3  C6  UNK d          12.720  37.205  -6.775  0.00  0.00     0.098 C 
BRANCH   3   4
ATOM      4  C4  UNK d          12.885  37.703  -5.369  0.00  0.00     0.245 C 
ATOM      5  O5  UNK d          12.452  36.848  -4.215  0.00  0.00    -0.211 OA
BRANCH   4   6
ATOM      6  C2  UNK d          13.483  39.056  -5.118  0.00  0.00     0.218 C 
ATOM      7  O1  UNK d          12.664  40.127  -4.462  0.00  0.00    -0.645 OA
ATOM      8  O3  UNK d          14.899  39.337  -5.523  0.00  0.00    -0.645 OA
ENDBRANCH   4   6
ENDBRANCH   3   4
ENDBRANCH   1   3
BRANCH   1   9
ATOM      9  C9  UNK d          14.480  35.976  -8.238  0.00  0.00    -0.023 A 
ATOM     10  C10 UNK d          14.960  34.704  -8.872  0.00  0.00     0.024 A 
ATOM     11  C11 UNK d          16.046  34.745  -9.906  0.00  0.00     0.004 A 
ATOM     12  C12 UNK d          16.653  36.057 -10.305  0.00  0.00     0.001 A 
ATOM     13  C13 UNK d          16.173  37.329  -9.671  0.00  0.00     0.004 A 
ATOM     14  C14 UNK d          15.087  37.289  -8.638  0.00  0.00     0.024 A 
ENDBRANCH   1   9
TORSDOF 4
ENDMDL
MODEL 3
REMARK VINA RESULT:      -4.8      1.676      2.943
REMARK  4 active torsions:
REMARK  status: ('A' for Active; 'I' for Inactive)
REMARK    1  A    between atoms: C2_2  and  C4_4 
REMARK    2  A    between atoms: C4_4  and  C6_6 
REMARK    3  A    between atoms: C6_6  and  C7_7 
REMARK    4  A    between atoms: C7_7  and  C9_9 
ROOT
ATOM      1  C7  UNK d          13.482  38.908  -5.680  0.00  0.00     0.104 C 
ATOM      2  O8  UNK d          14.688  39.733  -5.340  0.00  0.00    -0.195 OA
ENDROOT
BRANCH   1   3
ATOM      3  C6  UNK d          12.115  39.376  -5.277  0.00  0.00     0.098 C 
BRANCH   3   4
ATOM      4  C4  UNK d          11.907  40.015  -3.936  0.00  0.00     0.245 C 
ATOM      5  O5  UNK d          12.222  39.251  -2.684  0.00  0.00    -0.211 OA
BRANCH   4   6
ATOM      6  C2  UNK d          11.382  41.417  -3.846  0.00  0.00     0.218 C 
ATOM      7  O1  UNK d           9.906  41.672  -3.922  0.00  0.00    -0.645 OA
ATOM      8  O3  UNK d          12.334  42.565  -3.680  0.00  0.00    -0.645 OA
ENDBRANCH   4   6
ENDBRANCH   3   4
ENDBRANCH   1   3
BRANCH   1   9
ATOM      9  C9  UNK d          13.643  37.615  -6.423  0.00  0.00    -0.023 A 
ATOM     10  C10 UNK d          14.501  37.558  -7.652  0.00  0.00     0.024 A 
ATOM     11  C11 UNK d          14.662  36.265  -8.396  0.00  0.00     0.004 A 
ATOM     12  C12 UNK d          13.965  35.029  -7.910  0.00  0.00     0.001 A 
ATOM     13  C13 UNK d          13.107  35.086  -6.681  0.00  0.00     0.004 A 
ATOM     14  C14 UNK d          12.946  36.379  -5.937  0.00  0.00     0.024 A 
ENDBRANCH   1   9
TORSDOF 4
ENDMDL
MODEL 4
REMARK VINA RESULT:      -4.8     13.513     16.051
REMARK  4 active torsions:
REMARK  status: ('A' for Active; 'I' for Inactive)
REMARK    1  A    between atoms: C2_2  and  C4_4 
REMARK    2  A    between atoms: C4_4  and  C6_6 
REMARK    3  A    between atoms: C6_6  and  C7_7 
REMARK    4  A    between atoms: C7_7  and  C9_9 
ROOT
ATOM      1  C7  UNK d           6.976  38.134   7.630  0.00  0.00     0.104 C 
ATOM      2  O8  UNK d           6.161  36.932   7.254  0.00  0.00    -0.195 OA
ENDROOT
BRANCH   1   3
ATOM      3  C6  UNK d           6.685  38.868   8.906  0.00  0.00     0.098 C 
BRANCH   3   4
ATOM      4  C4  UNK d           7.341  38.438  10.185  0.00  0.00     0.245 C 
ATOM      5  O5  UNK d           7.290  36.999  10.607  0.00  0.00    -0.211 OA
BRANCH   4   6
ATOM      6  C2  UNK d           8.048  39.446  11.041  0.00  0.00     0.218 C 
ATOM      7  O1  UNK d           9.481  39.791  10.764  0.00  0.00    -0.645 OA
ATOM      8  O3  UNK d           7.322  40.110  12.173  0.00  0.00    -0.645 OA
ENDBRANCH   4   6
ENDBRANCH   3   4
ENDBRANCH   1   3
BRANCH   1   9
ATOM      9  C9  UNK d           8.081  38.603   6.731  0.00  0.00    -0.023 A 
ATOM     10  C10 UNK d           8.516  37.755   5.573  0.00  0.00     0.024 A 
ATOM     11  C11 UNK d           9.622  38.224   4.674  0.00  0.00     0.004 A 
ATOM     12  C12 UNK d          10.292  39.540   4.933  0.00  0.00     0.001 A 
ATOM     13  C13 UNK d           9.857  40.388   6.091  0.00  0.00     0.004 A 
ATOM     14  C14 UNK d           8.751  39.920   6.990  0.00  0.00     0.024 A 
ENDBRANCH   1   9
TORSDOF 4
ENDMDL
MODEL 5
REMARK VINA RESULT:      -4.7     13.236     15.999
REMARK  4 active torsions:
REMARK  status: ('A' for Active; 'I' for Inactive)
REMARK    1  A    between atoms: C2_2  and  C4_4 
REMARK    2  A    between atoms: C4_4  and  C6_6 
REMARK    3  A    between atoms: C6_6  and  C7_7 
REMARK    4  A    between atoms: C7_7  and  C9_9 
ROOT
ATOM      1  C7  UNK d           9.130  40.957   7.869  0.00  0.00     0.104 C 
ATOM      2  O8  UNK d          10.061  42.132   7.801  0.00  0.00    -0.195 OA
ENDROOT
BRANCH   1   3
ATOM      3  C6  UNK d           8.212  40.796   9.045  0.00  0.00     0.098 C 
BRANCH   3   4
ATOM      4  C4  UNK d           8.652  39.995  10.235  0.00  0.00     0.245 C 
ATOM      5  O5  UNK d          10.093  39.997  10.649  0.00  0.00    -0.211 OA
BRANCH   4   6
ATOM      6  C2  UNK d           7.649  39.193  11.010  0.00  0.00     0.218 C 
ATOM      7  O1  UNK d           7.435  37.744  10.686  0.00  0.00    -0.645 OA
ATOM      8  O3  UNK d           6.861  39.840  12.110  0.00  0.00    -0.645 OA
ENDBRANCH   4   6
ENDBRANCH   3   4
ENDBRANCH   1   3
BRANCH   1   9
ATOM      9  C9  UNK d           9.117  39.945   6.763  0.00  0.00    -0.023 A 
ATOM     10  C10 UNK d          10.145  40.013   5.672  0.00  0.00     0.024 A 
ATOM     11  C11 UNK d          10.132  39.000   4.565  0.00  0.00     0.004 A 
ATOM     12  C12 UNK d           9.091  37.920   4.549  0.00  0.00     0.001 A 
ATOM     13  C13 UNK d           8.063  37.853   5.639  0.00  0.00     0.004 A 
ATOM     14  C14 UNK d           8.076  38.865   6.746  0.00  0.00     0.024 A 
ENDBRANCH   1   9
TORSDOF 4
ENDMDL
MODEL 6
REMARK VINA RESULT:      -4.7     13.352     15.891
REMARK  4 active torsions:
REMARK  status: ('A' for Active; 'I' for Inactive)
REMARK    1  A    between atoms: C2_2  and  C4_4 
REMARK    2  A    between atoms: C4_4  and  C6_6 
REMARK    3  A    between atoms: C6_6  and  C7_7 
REMARK    4  A    between atoms: C7_7  and  C9_9 
ROOT
ATOM      1  C7  UNK d           7.264  38.966   7.730  0.00  0.00     0.104 C 
ATOM      2  O8  UNK d           6.237  37.885   7.896  0.00  0.00    -0.195 OA
ENDROOT
BRANCH   1   3
ATOM      3  C6  UNK d           7.286  40.130   8.675  0.00  0.00     0.098 C 
BRANCH   3   4
ATOM      4  C4  UNK d           8.170  40.096   9.886  0.00  0.00     0.245 C 
ATOM      5  O5  UNK d           9.517  40.756   9.851  0.00  0.00    -0.211 OA
BRANCH   4   6
ATOM      6  C2  UNK d           7.708  39.402  11.132  0.00  0.00     0.218 C 
ATOM      7  O1  UNK d           7.221  40.205  12.302  0.00  0.00    -0.645 OA
ATOM      8  O3  UNK d           7.733  37.904  11.210  0.00  0.00    -0.645 OA
ENDBRANCH   4   6
ENDBRANCH   3   4
ENDBRANCH   1   3
BRANCH   1   9
ATOM      9  C9  UNK d           8.268  38.882   6.619  0.00  0.00    -0.023 A 
ATOM     10  C10 UNK d           9.141  40.060   6.306  0.00  0.00     0.024 A 
ATOM     11  C11 UNK d          10.146  39.976   5.195  0.00  0.00     0.004 A 
ATOM     12  C12 UNK d          10.276  38.713   4.396  0.00  0.00     0.001 A 
ATOM     13  C13 UNK d           9.403  37.535   4.709  0.00  0.00     0.004 A 
ATOM     14  C14 UNK d           8.399  37.619   5.820  0.00  0.00     0.024 A 
ENDBRANCH   1   9
TORSDOF 4
ENDMDL
MODEL 7
REMARK VINA RESULT:      -4.6     22.706     23.471
REMARK  4 active torsions:
REMARK  status: ('A' for Active; 'I' for Inactive)
REMARK    1  A    between atoms: C2_2  and  C4_4 
REMARK    2  A    between atoms: C4_4  and  C6_6 
REMARK    3  A    between atoms: C6_6  and  C7_7 
REMARK    4  A    between atoms: C7_7  and  C9_9 
ROOT
ATOM      1  C7  UNK d          29.831  30.274   7.785  0.00  0.00     0.104 C 
ATOM      2  O8  UNK d          28.411  29.813   7.927  0.00  0.00    -0.195 OA
ENDROOT
BRANCH   1   3
ATOM      3  C6  UNK d          30.893  29.308   7.347  0.00  0.00     0.098 C 
BRANCH   3   4
ATOM      4  C4  UNK d          30.884  28.767   5.948  0.00  0.00     0.245 C 
ATOM      5  O5  UNK d          29.962  27.641   5.586  0.00  0.00    -0.211 OA
BRANCH   4   6
ATOM      6  C2  UNK d          31.797  29.353   4.912  0.00  0.00     0.218 C 
ATOM      7  O1  UNK d          31.505  30.705   4.333  0.00  0.00    -0.645 OA
ATOM      8  O3  UNK d          33.002  28.585   4.455  0.00  0.00    -0.645 OA
ENDBRANCH   4   6
ENDBRANCH   3   4
ENDBRANCH   1   3
BRANCH   1   9
ATOM      9  C9  UNK d          30.190  31.700   8.080  0.00  0.00    -0.023 A 
ATOM     10  C10 UNK d          29.527  32.420   9.216  0.00  0.00     0.024 A 
ATOM     11  C11 UNK d          29.886  33.847   9.511  0.00  0.00     0.004 A 
ATOM     12  C12 UNK d          30.908  34.552   8.670  0.00  0.00     0.001 A 
ATOM     13  C13 UNK d          31.572  33.832   7.534  0.00  0.00     0.004 A 
ATOM     14  C14 UNK d          31.213  32.406   7.239  0.00  0.00     0.024 A 
ENDBRANCH   1   9
TORSDOF 4
ENDMDL
MODEL 8
REMARK VINA RESULT:      -4.6     22.614     23.377
REMARK  4 active torsions:
REMARK  status: ('A' for Active; 'I' for Inactive)
REMARK    1  A    between atoms: C2_2  and  C4_4 
REMARK    2  A    between atoms: C4_4  and  C6_6 
REMARK    3  A    between atoms: C6_6  and  C7_7 
REMARK    4  A    between atoms: C7_7  and  C9_9 
ROOT
ATOM      1  C7  UNK d          30.252  30.383   7.612  0.00  0.00     0.104 C 
ATOM      2  O8  UNK d          28.983  29.679   7.991  0.00  0.00    -0.195 OA
ENDROOT
BRANCH   1   3
ATOM      3  C6  UNK d          31.320  29.649   6.857  0.00  0.00     0.098 C 
BRANCH   3   4
ATOM      4  C4  UNK d          31.123  29.321   5.406  0.00  0.00     0.245 C 
ATOM      5  O5  UNK d          31.536  30.305   4.352  0.00  0.00    -0.211 OA
BRANCH   4   6
ATOM      6  C2  UNK d          30.512  28.010   5.010  0.00  0.00     0.218 C 
ATOM      7  O1  UNK d          29.371  27.444   5.802  0.00  0.00    -0.645 OA
ATOM      8  O3  UNK d          31.043  27.264   3.822  0.00  0.00    -0.645 OA
ENDBRANCH   4   6
ENDBRANCH   3   4
ENDBRANCH   1   3
BRANCH   1   9
ATOM      9  C9  UNK d          30.453  31.821   7.989  0.00  0.00    -0.023 A 
ATOM     10  C10 UNK d          31.434  32.665   7.230  0.00  0.00     0.024 A 
ATOM     11  C11 UNK d          31.635  34.103   7.607  0.00  0.00     0.004 A 
ATOM     12  C12 UNK d          30.855  34.697   8.742  0.00  0.00     0.001 A 
ATOM     13  C13 UNK d          29.875  33.852   9.501  0.00  0.00     0.004 A 
ATOM     14  C14 UNK d          29.674  32.414   9.125  0.00  0.00     0.024 A 
ENDBRANCH   1   9
TORSDOF 4
ENDMDL
MODEL 9
REMARK VINA RESULT:      -4.6      1.270      2.246
REMARK  4 active torsions:
REMARK  status: ('A' for Active; 'I' for Inactive)
REMARK    1  A    between atoms: C2_2  and  C4_4 
REMARK    2  A    between atoms: C4_4  and  C6_6 
REMARK    3  A    between atoms: C6_6  and  C7_7 
REMARK    4  A    between atoms: C7_7  and  C9_9 
ROOT
ATOM      1  C7  UNK d          13.954  38.058  -7.796  0.00  0.00     0.104 C 
ATOM      2  O8  UNK d          13.843  39.406  -8.447  0.00  0.00    -0.195 OA
ENDROOT
BRANCH   1   3
ATOM      3  C6  UNK d          13.343  37.825  -6.446  0.00  0.00     0.098 C 
BRANCH   3   4
ATOM      4  C4  UNK d          13.465  38.870  -5.377  0.00  0.00     0.245 C 
ATOM      5  O5  UNK d          14.771  39.576  -5.164  0.00  0.00    -0.211 OA
BRANCH   4   6
ATOM      6  C2  UNK d          12.280  39.210  -4.522  0.00  0.00     0.218 C 
ATOM      7  O1  UNK d          11.048  39.795  -5.146  0.00  0.00    -0.645 OA
ATOM      8  O3  UNK d          12.328  38.963  -3.043  0.00  0.00    -0.645 OA
ENDBRANCH   4   6
ENDBRANCH   3   4
ENDBRANCH   1   3
BRANCH   1   9
ATOM      9  C9  UNK d          14.675  36.945  -8.496  0.00  0.00    -0.023 A 
ATOM     10  C10 UNK d          15.788  37.256  -9.452  0.00  0.00     0.024 A 
ATOM     11  C11 UNK d          16.509  36.143 -10.152  0.00  0.00     0.004 A 
ATOM     12  C12 UNK d          16.117  34.718  -9.896  0.00  0.00     0.001 A 
ATOM     13  C13 UNK d          15.003  34.406  -8.940  0.00  0.00     0.004 A 
ATOM     14  C14 UNK d          14.282  35.520  -8.240  0.00  0.00     0.024 A 
ENDBRANCH   1   9
TORSDOF 4
ENDMDL
