MODEL 1
REMARK VINA RESULT:      -7.6      0.000      0.000
REMARK  1 active torsions:
REMARK  status: ('A' for Active; 'I' for Inactive)
REMARK    1  A    between atoms: C1_1  and  C7_7 
ROOT
ATOM      1  C1  UNK d           8.617  37.249   5.130  0.00  0.00     0.102 A 
ATOM      2  C2  UNK d           8.454  38.042   4.970  0.00  0.00     0.203 A 
ATOM      3  C3  UNK d           9.373  36.944   5.016  0.00  0.00     0.303 A 
ATOM      4  O4  UNK d           9.967  37.448   4.738  0.00  0.00    -0.273 OA
ATOM      5  C5  UNK d           9.051  38.530   4.695  0.00  0.00     0.062 A 
ATOM      6  C6  UNK d           9.804  38.241   4.578  0.00  0.00     0.106 A 
ATOM      7  O8  UNK d           9.537  36.151   5.176  0.00  0.00    -0.259 OA
ATOM      8  O9  UNK d           7.690  38.338   5.088  0.00  0.00    -0.286 OA
ATOM      9  C10 UNK d           8.886  39.310   4.539  0.00  0.00     0.005 A 
ATOM     10  C11 UNK d          10.394  38.728   4.306  0.00  0.00     0.025 A 
ATOM     11  C14 UNK d           9.474  39.805   4.265  0.00  0.00     0.000 A 
ATOM     12  C15 UNK d          10.233  39.509   4.148  0.00  0.00     0.002 A 
ENDROOT
BRANCH   1  13
ATOM     13  C7  UNK d           8.016  36.756   5.407  0.00  0.00     0.008 A 
ATOM     14  C12 UNK d           7.566  36.314   4.867  0.00  0.00     0.000 A 
ATOM     15  C17 UNK d           6.968  35.824   5.140  0.00  0.00     0.000 A 
ATOM     16  C18 UNK d           6.809  35.767   5.954  0.00  0.00     0.000 A 
ATOM     17  C16 UNK d           7.261  36.209   6.484  0.00  0.00     0.000 A 
ATOM     18  C13 UNK d           7.864  36.704   6.210  0.00  0.00     0.000 A 
ENDBRANCH   1  13
TORSDOF 1
ENDMDL
MODEL 2
REMARK VINA RESULT:      -7.2      2.292      4.133
REMARK  1 active torsions:
REMARK  status: ('A' for Active; 'I' for Inactive)
REMARK    1  A    between atoms: C1_1  and  C7_7 
ROOT
ATOM      1  C1  UNK d           9.432  40.283   6.078  0.00  0.00     0.102 A 
ATOM      2  C2  UNK d           9.963  40.010   5.508  0.00  0.00     0.203 A 
ATOM      3  C3  UNK d           8.813  39.807   6.339  0.00  0.00     0.303 A 
ATOM      4  O4  UNK d           8.733  39.049   6.019  0.00  0.00    -0.273 OA
ATOM      5  C5  UNK d           9.872  39.257   5.199  0.00  0.00     0.062 A 
ATOM      6  C6  UNK d           9.263  38.776   5.449  0.00  0.00     0.106 A 
ATOM      7  O8  UNK d           8.283  40.081   6.909  0.00  0.00    -0.259 OA
ATOM      8  O9  UNK d          10.581  40.497   5.252  0.00  0.00    -0.286 OA
ATOM      9  C10 UNK d          10.396  38.992   4.637  0.00  0.00     0.005 A 
ATOM     10  C11 UNK d           9.176  38.029   5.140  0.00  0.00     0.025 A 
ATOM     11  C14 UNK d          10.314  38.243   4.324  0.00  0.00     0.000 A 
ATOM     12  C15 UNK d           9.698  37.760   4.579  0.00  0.00     0.002 A 
ENDROOT
BRANCH   1  13
ATOM     13  C7  UNK d           9.523  41.042   6.389  0.00  0.00     0.008 A 
ATOM     14  C12 UNK d           9.159  41.686   6.014  0.00  0.00     0.000 A 
ATOM     15  C17 UNK d           9.248  42.442   6.322  0.00  0.00     0.000 A 
ATOM     16  C18 UNK d           9.701  42.565   7.008  0.00  0.00     0.000 A 
ATOM     17  C16 UNK d          10.060  41.920   7.375  0.00  0.00     0.000 A 
ATOM     18  C13 UNK d           9.971  41.158   7.065  0.00  0.00     0.000 A 
ENDBRANCH   1  13
TORSDOF 1
ENDMDL
MODEL 3
REMARK VINA RESULT:      -7.2     25.258     26.227
REMARK  1 active torsions:
REMARK  status: ('A' for Active; 'I' for Inactive)
REMARK    1  A    between atoms: C1_1  and  C7_7 
ROOT
ATOM      1  C1  UNK d          26.924  19.610   0.441  0.00  0.00     0.102 A 
ATOM      2  C2  UNK d          27.733  19.493   0.332  0.00  0.00     0.203 A 
ATOM      3  C3  UNK d          26.571  20.328   0.243  0.00  0.00     0.303 A 
ATOM      4  O4  UNK d          27.045  20.930  -0.068  0.00  0.00    -0.273 OA
ATOM      5  C5  UNK d          28.190  20.098   0.023  0.00  0.00     0.062 A 
ATOM      6  C6  UNK d          27.855  20.813  -0.177  0.00  0.00     0.106 A 
ATOM      7  O8  UNK d          25.762  20.445   0.352  0.00  0.00    -0.259 OA
ATOM      8  O9  UNK d          28.077  18.768   0.534  0.00  0.00    -0.286 OA
ATOM      9  C10 UNK d          28.988  19.979  -0.083  0.00  0.00     0.005 A 
ATOM     10  C11 UNK d          28.312  21.411  -0.483  0.00  0.00     0.025 A 
ATOM     11  C14 UNK d          29.452  20.575  -0.390  0.00  0.00     0.000 A 
ATOM     12  C15 UNK d          29.109  21.296  -0.591  0.00  0.00     0.002 A 
ENDROOT
BRANCH   1  13
ATOM     13  C7  UNK d          26.462  19.001   0.752  0.00  0.00     0.008 A 
ATOM     14  C12 UNK d          26.129  18.437   0.242  0.00  0.00     0.000 A 
ATOM     15  C17 UNK d          25.670  17.830   0.550  0.00  0.00     0.000 A 
ATOM     16  C18 UNK d          25.535  17.778   1.368  0.00  0.00     0.000 A 
ATOM     17  C16 UNK d          25.869  18.343   1.868  0.00  0.00     0.000 A 
ATOM     18  C13 UNK d          26.333  18.954   1.560  0.00  0.00     0.000 A 
ENDBRANCH   1  13
TORSDOF 1
ENDMDL
MODEL 4
REMARK VINA RESULT:      -7.1      2.364      3.883
REMARK  1 active torsions:
REMARK  status: ('A' for Active; 'I' for Inactive)
REMARK    1  A    between atoms: C1_1  and  C7_7 
ROOT
ATOM      1  C1  UNK d           9.447  40.394   5.186  0.00  0.00     0.102 A 
ATOM      2  C2  UNK d           9.831  40.744   5.826  0.00  0.00     0.203 A 
ATOM      3  C3  UNK d           8.854  40.797   4.779  0.00  0.00     0.303 A 
ATOM      4  O4  UNK d           8.653  41.560   5.025  0.00  0.00    -0.273 OA
ATOM      5  C5  UNK d           9.622  41.500   6.059  0.00  0.00     0.062 A 
ATOM      6  C6  UNK d           9.037  41.910   5.665  0.00  0.00     0.106 A 
ATOM      7  O8  UNK d           8.470  40.447   4.138  0.00  0.00    -0.259 OA
ATOM      8  O9  UNK d          10.425  40.331   6.228  0.00  0.00    -0.286 OA
ATOM      9  C10 UNK d          10.003  41.842   6.690  0.00  0.00     0.005 A 
ATOM     10  C11 UNK d           8.832  42.661   5.899  0.00  0.00     0.025 A 
ATOM     11  C14 UNK d           9.802  42.595   6.931  0.00  0.00     0.000 A 
ATOM     12  C15 UNK d           9.211  43.006   6.530  0.00  0.00     0.002 A 
ENDROOT
BRANCH   1  13
ATOM     13  C7  UNK d           9.657  39.632   4.950  0.00  0.00     0.008 A 
ATOM     14  C12 UNK d           9.256  38.979   5.267  0.00  0.00     0.000 A 
ATOM     15  C17 UNK d           9.463  38.220   5.034  0.00  0.00     0.000 A 
ATOM     16  C18 UNK d          10.074  38.102   4.483  0.00  0.00     0.000 A 
ATOM     17  C16 UNK d          10.468  38.756   4.172  0.00  0.00     0.000 A 
ATOM     18  C13 UNK d          10.259  39.521   4.406  0.00  0.00     0.000 A 
ENDBRANCH   1  13
TORSDOF 1
ENDMDL
MODEL 5
REMARK VINA RESULT:      -7.1      0.806      3.302
REMARK  1 active torsions:
REMARK  status: ('A' for Active; 'I' for Inactive)
REMARK    1  A    between atoms: C1_1  and  C7_7 
ROOT
ATOM      1  C1  UNK d           9.169  38.261   5.032  0.00  0.00     0.102 A 
ATOM      2  C2  UNK d           8.469  38.100   5.439  0.00  0.00     0.203 A 
ATOM      3  C3  UNK d           9.611  37.651   4.698  0.00  0.00     0.303 A 
ATOM      4  O4  UNK d           9.339  36.874   4.778  0.00  0.00    -0.273 OA
ATOM      5  C5  UNK d           8.212  37.326   5.510  0.00  0.00     0.062 A 
ATOM      6  C6  UNK d           8.639  36.714   5.184  0.00  0.00     0.106 A 
ATOM      7  O8  UNK d          10.310  37.812   4.291  0.00  0.00    -0.259 OA
ATOM      8  O9  UNK d           8.033  38.720   5.771  0.00  0.00    -0.286 OA
ATOM      9  C10 UNK d           7.522  37.172   5.912  0.00  0.00     0.005 A 
ATOM     10  C11 UNK d           8.381  35.947   5.257  0.00  0.00     0.025 A 
ATOM     11  C14 UNK d           7.257  36.404   5.989  0.00  0.00     0.000 A 
ATOM     12  C15 UNK d           7.692  35.788   5.658  0.00  0.00     0.002 A 
ENDROOT
BRANCH   1  13
ATOM     13  C7  UNK d           9.429  39.040   4.960  0.00  0.00     0.008 A 
ATOM     14  C12 UNK d           9.221  39.482   4.288  0.00  0.00     0.000 A 
ATOM     15  C17 UNK d           9.478  40.257   4.214  0.00  0.00     0.000 A 
ATOM     16  C18 UNK d           9.946  40.603   4.807  0.00  0.00     0.000 A 
ATOM     17  C16 UNK d          10.149  40.159   5.472  0.00  0.00     0.000 A 
ATOM     18  C13 UNK d           9.890  39.377   5.548  0.00  0.00     0.000 A 
ENDBRANCH   1  13
TORSDOF 1
ENDMDL
MODEL 6
REMARK VINA RESULT:      -7.1      2.870      4.163
REMARK  1 active torsions:
REMARK  status: ('A' for Active; 'I' for Inactive)
REMARK    1  A    between atoms: C1_1  and  C7_7 
ROOT
ATOM      1  C1  UNK d           9.510  40.119   6.232  0.00  0.00     0.102 A 
ATOM      2  C2  UNK d           9.903  40.771   6.551  0.00  0.00     0.203 A 
ATOM      3  C3  UNK d           8.941  39.715   6.670  0.00  0.00     0.303 A 
ATOM      4  O4  UNK d           8.771  39.975   7.437  0.00  0.00    -0.273 OA
ATOM      5  C5  UNK d           9.725  41.018   7.311  0.00  0.00     0.062 A 
ATOM      6  C6  UNK d           9.164  40.627   7.755  0.00  0.00     0.106 A 
ATOM      7  O8  UNK d           8.548  39.063   6.351  0.00  0.00    -0.259 OA
ATOM      8  O9  UNK d          10.473  41.169   6.103  0.00  0.00    -0.286 OA
ATOM      9  C10 UNK d          10.114  41.660   7.622  0.00  0.00     0.005 A 
ATOM     10  C11 UNK d           8.990  40.875   8.509  0.00  0.00     0.025 A 
ATOM     11  C14 UNK d           9.944  41.914   8.378  0.00  0.00     0.000 A 
ATOM     12  C15 UNK d           9.377  41.517   8.824  0.00  0.00     0.002 A 
ENDROOT
BRANCH   1  13
ATOM     13  C7  UNK d           9.689  39.869   5.467  0.00  0.00     0.008 A 
ATOM     14  C12 UNK d           9.299  40.215   4.821  0.00  0.00     0.000 A 
ATOM     15  C17 UNK d           9.476  39.968   4.058  0.00  0.00     0.000 A 
ATOM     16  C18 UNK d          10.042  39.374   3.929  0.00  0.00     0.000 A 
ATOM     17  C16 UNK d          10.425  39.035   4.576  0.00  0.00     0.000 A 
ATOM     18  C13 UNK d          10.248  39.283   5.345  0.00  0.00     0.000 A 
ENDBRANCH   1  13
TORSDOF 1
ENDMDL
MODEL 7
REMARK VINA RESULT:      -7.0      1.230      1.620
REMARK  1 active torsions:
REMARK  status: ('A' for Active; 'I' for Inactive)
REMARK    1  A    between atoms: C1_1  and  C7_7 
ROOT
ATOM      1  C1  UNK d           9.102  38.226   5.121  0.00  0.00     0.102 A 
ATOM      2  C2  UNK d           8.855  38.783   5.678  0.00  0.00     0.203 A 
ATOM      3  C3  UNK d           9.774  38.357   4.664  0.00  0.00     0.303 A 
ATOM      4  O4  UNK d          10.198  39.059   4.773  0.00  0.00    -0.273 OA
ATOM      5  C5  UNK d           9.285  39.474   5.775  0.00  0.00     0.062 A 
ATOM      6  C6  UNK d           9.952  39.616   5.329  0.00  0.00     0.106 A 
ATOM      7  O8  UNK d          10.021  37.800   4.108  0.00  0.00    -0.259 OA
ATOM      8  O9  UNK d           8.179  38.642   6.132  0.00  0.00    -0.286 OA
ATOM      9  C10 UNK d           9.039  40.020   6.324  0.00  0.00     0.005 A 
ATOM     10  C11 UNK d          10.376  40.302   5.429  0.00  0.00     0.025 A 
ATOM     11  C14 UNK d           9.459  40.711   6.430  0.00  0.00     0.000 A 
ATOM     12  C15 UNK d          10.133  40.851   5.977  0.00  0.00     0.002 A 
ENDROOT
BRANCH   1  13
ATOM     13  C7  UNK d           8.670  37.530   5.022  0.00  0.00     0.008 A 
ATOM     14  C12 UNK d           8.025  37.519   4.500  0.00  0.00     0.000 A 
ATOM     15  C17 UNK d           7.594  36.827   4.400  0.00  0.00     0.000 A 
ATOM     16  C18 UNK d           7.800  36.139   4.818  0.00  0.00     0.000 A 
ATOM     17  C16 UNK d           8.442  36.159   5.335  0.00  0.00     0.000 A 
ATOM     18  C13 UNK d           8.877  36.855   5.436  0.00  0.00     0.000 A 
ENDBRANCH   1  13
TORSDOF 1
ENDMDL
MODEL 8
REMARK VINA RESULT:      -6.9     25.828     26.981
REMARK  1 active torsions:
REMARK  status: ('A' for Active; 'I' for Inactive)
REMARK    1  A    between atoms: C1_1  and  C7_7 
ROOT
ATOM      1  C1  UNK d          28.002  19.999  -1.061  0.00  0.00     0.102 A 
ATOM      2  C2  UNK d          27.674  19.288  -0.800  0.00  0.00     0.203 A 
ATOM      3  C3  UNK d          27.713  20.721  -0.788  0.00  0.00     0.303 A 
ATOM      4  O4  UNK d          27.087  20.719  -0.247  0.00  0.00    -0.273 OA
ATOM      5  C5  UNK d          27.056  19.301  -0.264  0.00  0.00     0.062 A 
ATOM      6  C6  UNK d          26.760  20.008   0.014  0.00  0.00     0.106 A 
ATOM      7  O8  UNK d          28.040  21.432  -1.049  0.00  0.00    -0.259 OA
ATOM      8  O9  UNK d          27.972  18.569  -1.081  0.00  0.00    -0.286 OA
ATOM      9  C10 UNK d          26.736  18.598  -0.009  0.00  0.00     0.005 A 
ATOM     10  C11 UNK d          26.146  20.017   0.546  0.00  0.00     0.025 A 
ATOM     11  C14 UNK d          26.119  18.600   0.525  0.00  0.00     0.000 A 
ATOM     12  C15 UNK d          25.823  19.316   0.803  0.00  0.00     0.002 A 
ENDROOT
BRANCH   1  13
ATOM     13  C7  UNK d          28.625  19.988  -1.601  0.00  0.00     0.008 A 
ATOM     14  C12 UNK d          28.463  19.970  -2.415  0.00  0.00     0.000 A 
ATOM     15  C17 UNK d          29.082  19.958  -2.954  0.00  0.00     0.000 A 
ATOM     16  C18 UNK d          29.869  19.964  -2.690  0.00  0.00     0.000 A 
ATOM     17  C16 UNK d          30.023  19.982  -1.879  0.00  0.00     0.000 A 
ATOM     18  C13 UNK d          29.400  19.993  -1.335  0.00  0.00     0.000 A 
ENDBRANCH   1  13
TORSDOF 1
ENDMDL
MODEL 9
REMARK VINA RESULT:      -6.9     24.656     25.696
REMARK  1 active torsions:
REMARK  status: ('A' for Active; 'I' for Inactive)
REMARK    1  A    between atoms: C1_1  and  C7_7 
ROOT
ATOM      1  C1  UNK d          31.497  29.505  -3.685  0.00  0.00     0.102 A 
ATOM      2  C2  UNK d          31.188  30.145  -4.105  0.00  0.00     0.203 A 
ATOM      3  C3  UNK d          32.292  29.486  -3.470  0.00  0.00     0.303 A 
ATOM      4  O4  UNK d          32.775  30.122  -3.683  0.00  0.00    -0.273 OA
ATOM      5  C5  UNK d          31.679  30.768  -4.309  0.00  0.00     0.062 A 
ATOM      6  C6  UNK d          32.467  30.762  -4.103  0.00  0.00     0.106 A 
ATOM      7  O8  UNK d          32.600  28.846  -3.051  0.00  0.00    -0.259 OA
ATOM      8  O9  UNK d          30.388  30.153  -4.316  0.00  0.00    -0.286 OA
ATOM      9  C10 UNK d          31.371  31.397  -4.722  0.00  0.00     0.005 A 
ATOM     10  C11 UNK d          32.951  31.382  -4.307  0.00  0.00     0.025 A 
ATOM     11  C14 UNK d          31.851  32.023  -4.931  0.00  0.00     0.000 A 
ATOM     12  C15 UNK d          32.647  32.013  -4.720  0.00  0.00     0.002 A 
ENDROOT
BRANCH   1  13
ATOM     13  C7  UNK d          31.004  28.876  -3.479  0.00  0.00     0.008 A 
ATOM     14  C12 UNK d          30.947  28.218  -3.981  0.00  0.00     0.000 A 
ATOM     15  C17 UNK d          30.457  27.591  -3.777  0.00  0.00     0.000 A 
ATOM     16  C18 UNK d          30.017  27.613  -3.072  0.00  0.00     0.000 A 
ATOM     17  C16 UNK d          30.079  28.271  -2.579  0.00  0.00     0.000 A 
ATOM     18  C13 UNK d          30.573  28.903  -2.783  0.00  0.00     0.000 A 
ENDBRANCH   1  13
TORSDOF 1
ENDMDL
